SandboxData_C2S7_20210305/C2S7N09462/scenario_003/case.raw
0,100.0,33,0,1,60.0
GRID OPTIMIZATION COMPETITION CHALLENGE 2
INPUT DATA FILES ARE RAW JSON CON
20401,'Rockport',345.0,2,9,1,1,1.01999998,-19.641778,1.1,0.9,1.1,0.9
20403,'Michigan C~1',345.0,2,9,1,1,1.01999998,-54.823217,1.1,0.9,1.1,0.9
20405,'Cayuga',345.0,2,9,1,1,1.01999998,-40.592784,1.1,0.9,1.1,0.9
20407,'A B Brown',345.0,2,9,1,1,1.01999998,-16.729619,1.1,0.9,1.1,0.9
20408,'Clifty Creek',345.0,2,9,1,1,1.01999998,-35.050956,1.1,0.9,1.1,0.9
20409,'Sugar Cree~1',345.0,2,9,1,1,1.01999998,-34.287584,1.1,0.9,1.1,0.9
20410,'Meadow Lak~4',345.0,2,9,1,1,1.01780415,-53.625919,1.1,0.9,1.1,0.9
20411,'Bailly',345.0,2,9,1,1,1.01999998,-55.307679,1.1,0.9,1.1,0.9
20412,'Whiting Cl~1',345.0,2,9,1,1,1.01999998,-56.127489,1.1,0.9,1.1,0.9
20414,'Harding St~1',345.0,2,9,1,1,0.99111295,-47.702246,1.1,0.9,1.1,0.9
20415,'Warrick',345.0,2,9,1,1,1.01999998,-17.707785,1.1,0.9,1.1,0.9
20416,'Gary Works',138.0,2,9,1,1,1.01119721,-58.212179,1.1,0.9,1.1,0.9
20418,'ArcelorMit~3',345.0,2,9,1,1,1.01999998,-56.178548,1.1,0.9,1.1,0.9
20419,'R Gallagher',345.0,2,9,1,1,1.01999998,-29.802957,1.1,0.9,1.1,0.9
20420,'Benton Cou~1',345.0,1,9,1,1,1.01876867,-52.008189,1.1,0.9,1.1,0.9
20421,'R M Schahfer',138.0,2,9,1,1,1.01999998,-53.017158,1.1,0.9,1.1,0.9
20422,'Dean H Mit~1',345.0,2,9,1,1,1.01999998,-56.168986,1.1,0.9,1.1,0.9
20423,'Wheatland ~1',345.0,2,9,1,1,1.01999998,-22.059662,1.1,0.9,1.1,0.9
20424,'Frank E Ra~1',345.0,1,9,1,1,1.02003646,-20.852089,1.1,0.9,1.1,0.9
20425,'Wabash River',765.0,1,9,1,1,1.01162159,-41.257969,1.1,0.9,1.1,0.9
20426,'Hoosier Wi~1',345.0,1,9,1,1,1.01750565,-52.713225,1.1,0.9,1.1,0.9
20427,'Miami Wabash',345.0,1,9,1,1,0.98644733,-55.246829,1.1,0.9,1.1,0.9
20428,'F B Culley',345.0,2,9,1,1,1.01999998,-17.684547,1.1,0.9,1.1,0.9
20429,'Meadow Lak~2',138.0,2,9,1,1,1.01650858,-53.492361,1.1,0.9,1.1,0.9
20430,'Fowler Rid~1',345.0,2,9,1,1,1.01999998,-50.767444,1.1,0.9,1.1,0.9
20431,'Meadow Lak~1',138.0,2,9,1,1,1.01999998,-53.769435,1.1,0.9,1.1,0.9
20432,'Meadow Lak~3',138.0,2,9,1,1,1.01999998,-53.932348,1.1,0.9,1.1,0.9
20435,'Whiting Re~1',138.0,2,9,1,1,1.00947249,-58.385871,1.1,0.9,1.1,0.9
20436,'Vermillion~1',345.0,2,9,1,1,1.01999998,-40.671362,1.1,0.9,1.1,0.9
20437,'Georgetown',345.0,2,9,1,1,0.98351717,-50.353415,1.1,0.9,1.1,0.9
20438,'Lawrence C~1',345.0,2,9,1,1,1.00409949,-32.424728,1.1,0.9,1.1,0.9
20439,'Portside E~1',138.0,2,9,1,1,1.01064122,-57.579021,1.1,0.9,1.1,0.9
20440,'Noblesville',345.0,2,9,1,1,0.99075079,-51.804106,1.1,0.9,1.1,0.9
20441,'Worthingto~1',345.0,1,9,1,1,1.00525022,-32.153003,1.1,0.9,1.1,0.9
20442,'Montpelier~1',345.0,2,9,1,1,0.99700725,-57.23734,1.1,0.9,1.1,0.9
20443,'Broadway (~1',345.0,1,9,1,1,1.01750588,-17.660883,1.1,0.9,1.1,0.9
20444,'ArcelorMit~1',138.0,2,9,1,1,1.01287866,-57.213554,1.1,0.9,1.1,0.9
20445,'Eagle Vall~1',138.0,2,9,1,1,1.0026536,-42.137209,1.1,0.9,1.1,0.9
20446,'Connersville',138.0,2,9,1,1,0.98750347,-49.775048,1.1,0.9,1.1,0.9
20447,'Richmond',345.0,1,9,1,1,0.99570924,-50.084961,1.1,0.9,1.1,0.9
20448,'Anderson',138.0,2,9,1,1,0.98518491,-53.613942,1.1,0.9,1.1,0.9
20449,'Edwardsport',138.0,2,9,1,1,1.01999998,-25.623952,1.1,0.9,1.1,0.9
20450,'Whitewater~1',138.0,2,9,1,1,0.996167,-50.495722,1.1,0.9,1.1,0.9
20451,'Purdue Uni~1',69.0,2,9,1,1,0.99533415,-52.191579,1.1,0.9,1.1,0.9
20452,'Logansport',69.0,2,9,1,1,1.00247014,-53.797268,1.1,0.9,1.1,0.9
20453,'Crawfordsv~1',69.0,2,9,1,1,0.99118739,-48.559937,1.1,0.9,1.1,0.9
20455,'Northeast ~1',138.0,2,9,1,1,1.00518453,-20.001321,1.1,0.9,1.1,0.9
20456,'Peru (IN)',138.0,1,9,1,1,0.99342543,-54.476312,1.1,0.9,1.1,0.9
20457,'Markland',138.0,2,9,1,1,1.01999998,-41.063524,1.1,0.9,1.1,0.9
20458,'Midland Co~1',765.0,1,17,1,1,1.02919412,-42.978853,1.1,0.9,1.1,0.9
20459,'Donald C C~1',765.0,1,17,1,1,1.01757455,-46.044105,1.1,0.9,1.1,0.9
20460,'Palisades',345.0,2,17,1,1,1.01999998,-45.721969,1.1,0.9,1.1,0.9
20462,'Ludington',345.0,2,17,1,1,1.01999998,-30.748528,1.1,0.9,1.1,0.9
20463,'River Rouge',345.0,2,17,1,1,1.01999998,-49.362703,1.1,0.9,1.1,0.9
20464,'J H Campbell',345.0,2,17,1,1,1.01999998,-41.549315,1.1,0.9,1.1,0.9
20465,'New Covert~1',345.0,2,17,1,1,1.01999998,-45.680162,1.1,0.9,1.1,0.9
20466,'Thetford',138.0,2,17,1,1,1.01999998,-45.82587,1.1,0.9,1.1,0.9
20467,'Zeeland Ge~1',345.0,2,17,1,1,1.01999998,-42.344857,1.1,0.9,1.1,0.9
20468,'Dearborn I~1',345.0,2,17,1,1,1.01999998,-49.370882,1.1,0.9,1.1,0.9
20469,'Renaissanc~1',345.0,2,17,1,1,1.01999998,-41.426064,1.1,0.9,1.1,0.9
20470,'Hancock',138.0,2,17,1,1,1.00076139,-50.185764,1.1,0.9,1.1,0.9
20471,'J C Weadock',345.0,2,17,1,1,1.01999998,-39.927561,1.1,0.9,1.1,0.9
20472,'Erickson S~1',138.0,2,17,1,1,1.00842941,-46.393493,1.1,0.9,1.1,0.9
20473,'Dan E Karn',345.0,2,17,1,1,1.01999998,-39.893489,1.1,0.9,1.1,0.9
20474,'Conners Cr~1',345.0,1,17,1,1,1.00676215,-48.764019,1.1,0.9,1.1,0.9
20475,'Harbor Beach',138.0,2,17,1,1,1.01999998,-44.207184,1.1,0.9,1.1,0.9
20476,'Trenton Ch~1',345.0,2,17,1,1,1.01999998,-50.125625,1.1,0.9,1.1,0.9
20477,'J R Whiting',345.0,2,17,1,1,1.01999998,-53.680465,1.1,0.9,1.1,0.9
20479,'Dean',345.0,2,17,1,1,1.01999998,-41.667374,1.1,0.9,1.1,0.9
20480,'Greenwood ~1',345.0,2,17,1,1,1.01999998,-43.090485,1.1,0.9,1.1,0.9
20481,'Sumpter',138.0,2,17,1,1,1.01999998,-52.547319,1.1,0.9,1.1,0.9
20482,'Michigan P~1',345.0,1,17,1,1,1.01912045,-31.189454,1.1,0.9,1.1,0.9
20483,'Gaylord - ~1',138.0,2,17,1,1,1.01999998,-38.620755,1.1,0.9,1.1,0.9
20484,'J B Sims',345.0,1,17,1,1,1.01094675,-40.302204,1.1,0.9,1.1,0.9
20485,'Marysville',138.0,2,17,1,1,1.01999998,-42.929248,1.1,0.9,1.1,0.9
20486,'Kalamazoo ~1',345.0,1,17,1,1,0.99354088,-50.180068,1.1,0.9,1.1,0.9
20487,'Michigan W~1',138.0,2,17,1,1,1.01918495,-45.495368,1.1,0.9,1.1,0.9
20488,'Greater De~1',138.0,1,17,1,1,1.00178874,-49.996599,1.1,0.9,1.1,0.9
20489,'Fermi',138.0,2,17,1,1,1.01999998,-52.818614,1.1,0.9,1.1,0.9
20490,'Northeast ~2',138.0,2,17,1,1,1.00066268,-49.390618,1.1,0.9,1.1,0.9
20491,'Superior',138.0,1,17,1,1,0.99329096,-54.474003,1.1,0.9,1.1,0.9
20492,'T B Simon ~1',138.0,1,17,1,1,0.99673498,-47.482375,1.1,0.9,1.1,0.9
20493,'Kalkaska C~1',69.0,2,17,1,1,1.01356578,-40.33684,1.1,0.9,1.1,0.9
20494,'Jackson Ge~1',138.0,2,17,1,1,1.01999998,-51.59418,1.1,0.9,1.1,0.9
20495,'Stoney Cor~1',138.0,1,17,1,1,1.00942242,-37.608934,1.1,0.9,1.1,0.9
20496,'Endicott S~1',69.0,2,17,1,1,0.99402064,-54.797904,1.1,0.9,1.1,0.9
20497,'Harvest Wi~1',69.0,2,17,1,1,0.9994871,-46.573308,1.1,0.9,1.1,0.9
20498,'LaFarge Al~1',69.0,2,17,1,1,1.01999998,-41.891569,1.1,0.9,1.1,0.9
20499,'University~1',138.0,1,17,1,1,0.99155432,-54.528088,1.1,0.9,1.1,0.9
20500,'Eckert Sta~1',345.0,2,17,1,1,1.01999998,-43.699834,1.1,0.9,1.1,0.9
20501,'Cadillac R~1',138.0,1,17,1,1,1.00916183,-37.090871,1.1,0.9,1.1,0.9
20502,'Livingston~1',138.0,2,17,1,1,1.01999998,-38.553078,1.1,0.9,1.1,0.9
20503,'Edison Sault',138.0,1,17,1,1,1.00641119,-47.730759,1.1,0.9,1.1,0.9
20504,'Genesee Po~1',69.0,2,17,1,1,1.00377762,-46.81357,1.1,0.9,1.1,0.9
20505,'491 E 48th~1',345.0,2,17,1,1,1.01823008,-43.009496,1.1,0.9,1.1,0.9
20506,'Grayling G~1',69.0,2,17,1,1,1.01714599,-40.7895,1.1,0.9,1.1,0.9
20507,'B E Morrow',138.0,2,17,1,1,0.99146855,-50.568258,1.1,0.9,1.1,0.9
20508,'Ada Cogene~1',138.0,1,17,1,1,0.99008465,-45.248279,1.1,0.9,1.1,0.9
20509,'Hardy',69.0,2,17,1,1,1.00250733,-40.841926,1.1,0.9,1.1,0.9
20510,'GRS Arbor ~1',69.0,2,17,1,1,0.99741387,-51.497424,1.1,0.9,1.1,0.9
20511,'Escanaba M~1',345.0,1,17,1,1,1.02391779,-51.89089,1.1,0.9,1.1,0.9
20512,'Verso Pape~1',69.0,2,17,1,1,1.01092517,-54.935102,1.1,0.9,1.1,0.9
20513,'Tower',69.0,2,17,1,1,1.01999998,-43.078662,1.1,0.9,1.1,0.9
20514,'George Joh~1',69.0,2,17,1,1,1.01999998,-37.295176,1.1,0.9,1.1,0.9
20515,'Plant Four',69.0,2,17,1,1,1.01999998,-51.830638,1.1,0.9,1.1,0.9
20516,'Sixth Stre~1',138.0,2,17,1,1,1.01219344,-43.509504,1.1,0.9,1.1,0.9
20519,'Gaylord - ~2',138.0,1,17,1,1,1.01720929,-39.001965,1.1,0.9,1.1,0.9
20520,'Escanaba',69.0,2,17,1,1,1.01969516,-51.221429,1.1,0.9,1.1,0.9
20521,'Claude Van~1',138.0,1,17,1,1,1.00558186,-45.317438,1.1,0.9,1.1,0.9
20523,'Zeeland',69.0,2,17,1,1,1.01122379,-44.408688,1.1,0.9,1.1,0.9
20524,'James De Y~1',138.0,2,17,1,1,1.01288712,-43.407034,1.1,0.9,1.1,0.9
20525,'Otsego Mil~1',138.0,1,17,1,1,0.98720664,-48.830163,1.1,0.9,1.1,0.9
20526,'Shiras',138.0,1,17,1,1,1.01853991,-51.893622,1.1,0.9,1.1,0.9
20527,'C W Tippy',138.0,2,17,1,1,1.01210666,-35.569931,1.1,0.9,1.1,0.9
20528,'Straits',69.0,2,17,1,1,1.01231718,-44.742319,1.1,0.9,1.1,0.9
20529,'White Pine~1',69.0,2,17,1,1,1.01999998,-52.862642,1.1,0.9,1.1,0.9
20530,'Hillman Po~1',69.0,2,17,1,1,1.01965332,-42.010287,1.1,0.9,1.1,0.9
20532,'Perry',345.0,3,27,1,1,1.01999998,-49.603228,1.1,0.9,1.1,0.9
20533,'General Ja~1',765.0,1,27,1,1,1.02507889,-38.435192,1.1,0.9,1.1,0.9
20534,'Davis Besse',345.0,2,27,1,1,1.01999998,-52.004565,1.1,0.9,1.1,0.9
20535,'Killen Sta~1',345.0,2,27,1,1,1.01999998,-34.384337,1.1,0.9,1.1,0.9
20536,'Cardinal',345.0,2,27,1,1,1.01999998,-42.067914,1.1,0.9,1.1,0.9
20537,'J M Stuart',765.0,1,27,1,1,1.01970136,-31.592825,1.1,0.9,1.1,0.9
20538,'Richland',345.0,2,27,1,1,1.01999998,-56.879579,1.1,0.9,1.1,0.9
20539,'FirstEnerg~1',345.0,1,27,1,1,1.01841843,-49.977867,1.1,0.9,1.1,0.9
20540,'FirstEnerg~5',138.0,2,27,1,1,1.01558244,-56.084172,1.1,0.9,1.1,0.9
20541,'Muskingum ~1',765.0,1,27,1,1,1.02662659,-40.888671,1.1,0.9,1.1,0.9
20542,'Kyger Creek',345.0,2,27,1,1,1.01999998,-36.26742,1.1,0.9,1.1,0.9
20543,'Washington~1',345.0,2,27,1,1,1.01999998,-39.644112,1.1,0.9,1.1,0.9
20544,'Robert P M~1',345.0,2,27,1,1,1.00403321,-57.321318,1.1,0.9,1.1,0.9
20545,'Rolling Hi~1',345.0,2,27,1,1,1.01999998,-38.772231,1.1,0.9,1.1,0.9
20546,'FirstEnerg~8',345.0,2,27,1,1,1.01999998,-44.69056,1.1,0.9,1.1,0.9
20547,'AEP Waterf~1',345.0,2,27,1,1,1.01999998,-39.302401,1.1,0.9,1.1,0.9
20548,'Troy Energ~1',345.0,2,27,1,1,1.01999998,-54.642695,1.1,0.9,1.1,0.9
20550,'Conesville',345.0,2,27,1,1,1.01999998,-46.590322,1.1,0.9,1.1,0.9
20551,'FirstEnerg~2',138.0,2,27,1,1,1.01872659,-55.489645,1.1,0.9,1.1,0.9
20552,'Niles Powe~1',138.0,2,27,1,1,1.01999998,-52.711749,1.1,0.9,1.1,0.9
20553,'Yankee Str~1',138.0,2,27,1,1,1.00327206,-46.93832,1.1,0.9,1.1,0.9
20554,'FirstEnerg~3',345.0,2,27,1,1,1.01999998,-51.667734,1.1,0.9,1.1,0.9
20555,'Walter C B~1',345.0,2,27,1,1,1.01999998,-40.83264,1.1,0.9,1.1,0.9
20556,'Picway',138.0,2,27,1,1,0.99482208,-48.556983,1.1,0.9,1.1,0.9
20557,'FirstEnerg~7',345.0,2,27,1,1,1.01999998,-41.425357,1.1,0.9,1.1,0.9
20558,'Dicks Creek',345.0,1,27,1,1,1.00882351,-45.669469,1.1,0.9,1.1,0.9
20559,'Darby Elec~1',345.0,2,27,1,1,1.00115049,-47.150681,1.1,0.9,1.1,0.9
20560,'Tait Elect~1',345.0,2,27,1,1,1.0003525,-47.378068,1.1,0.9,1.1,0.9
20561,'Madison',345.0,2,27,1,1,1.01359367,-45.315658,1.1,0.9,1.1,0.9
20562,'Avon Lake',345.0,2,27,1,1,1.01999998,-54.993855,1.1,0.9,1.1,0.9
20563,'FirstEnerg~9',345.0,2,27,1,1,1.01999998,-54.892933,1.1,0.9,1.1,0.9
20564,'Frank M Tait',345.0,2,27,1,1,1.00046754,-47.370121,1.1,0.9,1.1,0.9
20565,'O H Hutchi~1',345.0,2,27,1,1,1.0065341,-46.633229,1.1,0.9,1.1,0.9
20566,'Arcelormit~2',138.0,2,27,1,1,1.0063374,-56.767734,1.1,0.9,1.1,0.9
20567,'Haverhill ~1',345.0,2,27,1,1,1.01932931,-33.154992,1.1,0.9,1.1,0.9
20568,'Miami Fort',345.0,2,27,1,1,1.01999998,-39.615227,1.1,0.9,1.1,0.9
20569,'Greenville~1',138.0,2,27,1,1,1.0005846,-52.657746,1.1,0.9,1.1,0.9
20570,'Painesville',138.0,2,27,1,1,1.01327872,-51.644163,1.1,0.9,1.1,0.9
20571,'Central Ut~1',69.0,2,27,1,1,0.99205512,-44.498406,1.1,0.9,1.1,0.9
20572,'Shelby Mun~1',69.0,2,27,1,1,1.01043236,-57.985704,1.1,0.9,1.1,0.9
20573,'Bryan (OH)',138.0,2,27,1,1,0.99635828,-59.06555,1.1,0.9,1.1,0.9
20574,'Bowling Gr~1',138.0,1,27,1,1,0.99824083,-57.801637,1.1,0.9,1.1,0.9
20575,'Galion Gen~1',69.0,2,27,1,1,1.00535035,-57.26434,1.1,0.9,1.1,0.9
20576,'Napoleon P~1',138.0,1,27,1,1,1.0013746,-58.319017,1.1,0.9,1.1,0.9
20577,'West 41st ~1',138.0,2,27,1,1,1.00550306,-56.526335,1.1,0.9,1.1,0.9
20578,'Hamilton P~1',138.0,2,27,1,1,0.99400586,-45.21853,1.1,0.9,1.1,0.9
20579,'Bowling Gr~2',69.0,2,27,1,1,1.00749934,-57.681897,1.1,0.9,1.1,0.9
20581,'Lebanon',138.0,2,27,1,1,0.99869752,-45.77727,1.1,0.9,1.1,0.9
20582,'FirstEnerg~4',138.0,1,27,1,1,1.01163471,-56.386292,1.1,0.9,1.1,0.9
20583,'Dover',138.0,1,27,1,1,0.99653196,-50.851342,1.1,0.9,1.1,0.9
20584,'Hamilton (~1',138.0,2,27,1,1,1.0,-45.065329,1.1,0.9,1.1,0.9
20585,'P H Glatfe~1',138.0,2,27,1,1,1.00481915,-42.82753,1.1,0.9,1.1,0.9
20586,'FirstEnerg~6',138.0,1,27,1,1,0.976026,-52.024752,1.1,0.9,1.1,0.9
20587,'Ashtabula',138.0,2,27,1,1,1.01433158,-50.622852,1.1,0.9,1.1,0.9
20588,'Racine',69.0,2,27,1,1,1.01999998,-38.078933,1.1,0.9,1.1,0.9
20589,'Greenup Hy~1',345.0,2,27,1,1,1.01790977,-33.821297,1.1,0.9,1.1,0.9
20590,'Orrville',138.0,2,27,1,1,1.00316656,-55.598102,1.1,0.9,1.1,0.9
20591,'ArcelorMit~4',69.0,2,27,1,1,1.00280154,-54.223786,1.1,0.9,1.1,0.9
20592,'Piqua Powe~1',69.0,2,27,1,1,0.97350031,-54.73758,1.1,0.9,1.1,0.9
20593,'18001030100',138.0,1,9,1,1,0.97835553,-59.86977,1.1,0.9,1.1,0.9
20594,'18001030200',138.0,1,9,1,1,0.97823274,-59.868206,1.1,0.9,1.1,0.9
20595,'18001030300',138.0,1,9,1,1,0.97754019,-59.862858,1.1,0.9,1.1,0.9
20596,'18001030400',138.0,1,9,1,1,0.97750336,-59.751424,1.1,0.9,1.1,0.9
20597,'18001030500',138.0,1,9,1,1,0.97774071,-59.453696,1.1,0.9,1.1,0.9
20598,'18001030600',138.0,1,9,1,1,0.97704554,-59.4369,1.1,0.9,1.1,0.9
20599,'18001030700',138.0,1,9,1,1,0.97814131,-59.186492,1.1,0.9,1.1,0.9
20600,'18003000100',138.0,1,9,1,1,0.96482795,-60.920233,1.1,0.9,1.1,0.9
20601,'18003000300',138.0,1,9,1,1,0.96529639,-60.860216,1.1,0.9,1.1,0.9
20602,'18003000400',69.0,1,9,1,1,0.96053272,-61.889478,1.1,0.9,1.1,0.9
20603,'18003000500',69.0,1,9,1,1,0.95697528,-62.144435,1.1,0.9,1.1,0.9
20605,'18003000701',69.0,1,9,1,1,0.95583558,-62.175198,1.1,0.9,1.1,0.9
20606,'18003000704',69.0,1,9,1,1,0.95714337,-62.102279,1.1,0.9,1.1,0.9
20607,'18003000800',69.0,1,9,1,1,0.95567149,-62.185505,1.1,0.9,1.1,0.9
20608,'18003000900',69.0,1,9,1,1,0.95588285,-62.167337,1.1,0.9,1.1,0.9
20609,'18003001000',69.0,1,9,1,1,0.95648366,-62.121684,1.1,0.9,1.1,0.9
20611,'18003001200',69.0,1,9,1,1,0.958112,-61.90794,1.1,0.9,1.1,0.9
20612,'18003001300',69.0,1,9,1,1,0.95929348,-61.820315,1.1,0.9,1.1,0.9
20613,'18003001600',345.0,1,9,1,1,0.97630149,-58.715366,1.1,0.9,1.1,0.9
20614,'18003001700',345.0,1,9,1,1,0.97605872,-58.752638,1.1,0.9,1.1,0.9
20615,'18003002000',138.0,1,9,1,1,0.96571189,-60.794762,1.1,0.9,1.1,0.9
20616,'18003002100',138.0,1,9,1,1,0.96540791,-60.834972,1.1,0.9,1.1,0.9
20617,'18003002200',138.0,1,9,1,1,0.96462613,-60.948046,1.1,0.9,1.1,0.9
20618,'18003002300',138.0,1,9,1,1,0.96919304,-60.44548,1.1,0.9,1.1,0.9
...
0 / END OF BUS DATA BEGIN LOAD DATA
20593,'1',1,9,1,14.689,3.865,0.0,0.0,0.0,0.0,1,1,0
20594,'1',1,9,1,72.581,18.143,0.0,0.0,0.0,0.0,1,1,0
20595,'1',1,9,1,17.083,4.266,0.0,0.0,0.0,0.0,1,1,0
20596,'1',1,9,1,4.608,1.154,0.0,0.0,0.0,0.0,1,1,0
20599,'1',1,9,1,16.664,4.882,0.0,0.0,0.0,0.0,1,1,0
20602,'1',1,9,1,4.181,1.043,0.0,0.0,0.0,0.0,1,1,0
20603,'1',1,9,1,4.352,1.086,0.0,0.0,0.0,0.0,1,1,0
20605,'1',1,9,1,6.105,1.53,0.0,0.0,0.0,0.0,1,1,0
20606,'1',1,9,1,13.235,3.309,0.0,0.0,0.0,0.0,1,1,0
20607,'1',1,9,1,16.775,4.189,0.0,0.0,0.0,0.0,1,1,0
20608,'1',1,9,1,6.566,1.642,0.0,0.0,0.0,0.0,1,1,0
20609,'1',1,9,1,7.344,1.838,0.0,0.0,0.0,0.0,1,1,0
20611,'1',1,9,1,7.926,1.984,0.0,0.0,0.0,0.0,1,1,0
20612,'1',1,9,1,5.104,1.274,0.0,0.0,0.0,0.0,1,1,0
20615,'1',1,9,1,5.224,1.308,0.0,0.0,0.0,0.0,1,1,0
20619,'1',1,9,1,3.403,0.855,0.0,0.0,0.0,0.0,1,1,0
20620,'1',1,9,1,4.087,1.017,0.0,0.0,0.0,0.0,1,1,0
20621,'1',1,9,1,2.232,0.556,0.0,0.0,0.0,0.0,1,1,0
20622,'1',1,9,1,2.556,0.641,0.0,0.0,0.0,0.0,1,1,0
20624,'1',1,9,1,11.166,2.787,0.0,0.0,0.0,0.0,1,1,0
20626,'1',1,9,1,3.018,0.752,0.0,0.0,0.0,0.0,1,1,0
20628,'1',1,9,1,4.702,1.171,0.0,0.0,0.0,0.0,1,1,0
20631,'1',1,9,1,10.67,2.668,0.0,0.0,0.0,0.0,1,1,0
20632,'1',1,9,1,27.941,6.985,0.0,0.0,0.0,0.0,1,1,0
20635,'1',1,9,1,3.36,0.838,0.0,0.0,0.0,0.0,1,1,0
20637,'1',1,9,1,5.797,1.453,0.0,0.0,0.0,0.0,1,1,0
20640,'1',1,9,1,7.755,1.941,0.0,0.0,0.0,0.0,1,1,0
20641,'1',1,9,1,7.533,1.881,0.0,0.0,0.0,0.0,1,1,0
20645,'1',1,9,1,9.097,2.274,0.0,0.0,0.0,0.0,1,1,0
20651,'1',1,9,1,16.305,4.078,0.0,0.0,0.0,0.0,1,1,0
20654,'1',1,9,1,5.66,1.411,0.0,0.0,0.0,0.0,1,1,0
20657,'1',1,9,1,8.687,2.172,0.0,0.0,0.0,0.0,1,1,0
20658,'1',1,9,1,5.874,1.471,0.0,0.0,0.0,0.0,1,1,0
20659,'1',1,9,1,4.985,1.248,0.0,0.0,0.0,0.0,1,1,0
20663,'1',1,9,1,4.48,1.12,0.0,0.0,0.0,0.0,1,1,0
20664,'1',1,9,1,9.892,2.471,0.0,0.0,0.0,0.0,1,1,0
20665,'1',1,9,1,4.848,1.214,0.0,0.0,0.0,0.0,1,1,0
20666,'1',1,9,1,5.788,1.445,0.0,0.0,0.0,0.0,1,1,0
20667,'1',1,9,1,5.079,1.274,0.0,0.0,0.0,0.0,1,1,0
20668,'1',1,9,1,5.446,1.359,0.0,0.0,0.0,0.0,1,1,0
20669,'1',1,9,1,8.456,2.112,0.0,0.0,0.0,0.0,1,1,0
20670,'1',1,9,1,24.231,8.217,0.0,0.0,0.0,0.0,1,1,0
20674,'1',1,9,1,6.139,1.53,0.0,0.0,0.0,0.0,1,1,0
20675,'1',1,9,1,3.343,0.838,0.0,0.0,0.0,0.0,1,1,0
20676,'1',1,9,1,3.565,0.889,0.0,0.0,0.0,0.0,1,1,0
20679,'1',1,9,1,5.959,1.488,0.0,0.0,0.0,0.0,1,1,0
20682,'1',1,9,1,6.695,0.0,0.0,0.0,0.0,0.0,1,1,0
20683,'1',1,9,1,5.121,0.0,0.0,0.0,0.0,0.0,1,1,0
20684,'1',1,9,1,6.165,0.0,0.0,0.0,0.0,0.0,1,1,0
20685,'1',1,9,1,6.643,0.0,0.0,0.0,0.0,0.0,1,1,0
20687,'1',1,9,1,7.267,0.0,0.0,0.0,0.0,0.0,1,1,0
20688,'1',1,9,1,8.901,0.0,0.0,0.0,0.0,0.0,1,1,0
20689,'1',1,9,1,21.144,5.284,0.0,0.0,0.0,0.0,1,1,0
20691,'1',1,9,1,6.156,1.539,0.0,0.0,0.0,0.0,1,1,0
20692,'1',1,9,1,2.454,1.129,0.0,0.0,0.0,0.0,1,1,0
20694,'1',1,9,1,2.591,0.65,0.0,0.0,0.0,0.0,1,1,0
20701,'1',1,9,1,5.669,2.556,0.0,0.0,0.0,0.0,1,1,0
20703,'1',1,9,1,26.744,8.482,0.0,0.0,0.0,0.0,1,1,0
20704,'1',1,9,1,9.431,3.89,0.0,0.0,0.0,0.0,1,1,0
20707,'1',1,9,1,7.969,3.334,0.0,0.0,0.0,0.0,1,1,0
20708,'1',1,9,1,11.32,4.685,0.0,0.0,0.0,0.0,1,1,0
20709,'1',1,9,1,4.506,2.291,0.0,0.0,0.0,0.0,1,1,0
20711,'1',1,9,1,7.583,3.392,0.0,0.0,0.0,0.0,1,1,0
20712,'1',1,9,1,12.583,4.055,0.0,0.0,0.0,0.0,1,1,0
20714,'1',1,9,1,19.973,6.72,0.0,0.0,0.0,0.0,1,1,0
20715,'1',1,9,1,8.96,2.659,0.0,0.0,0.0,0.0,1,1,0
20717,'1',1,9,1,30.105,7.524,0.0,0.0,0.0,0.0,1,1,0
20718,'1',1,9,1,4.737,1.949,0.0,0.0,0.0,0.0,1,1,0
20719,'1',1,9,1,10.508,3.129,0.0,0.0,0.0,0.0,1,1,0
20721,'1',1,9,1,14.646,3.659,0.0,0.0,0.0,0.0,1,1,0
20722,'1',1,9,1,20.717,5.181,0.0,0.0,0.0,0.0,1,1,0
20723,'1',1,9,1,16.425,5.386,0.0,0.0,0.0,0.0,1,1,0
20729,'1',1,9,1,3.882,1.548,0.0,0.0,0.0,0.0,1,1,0
20730,'1',1,9,1,5.908,2.856,0.0,0.0,0.0,0.0,1,1,0
20731,'1',1,9,1,8.225,3.292,0.0,0.0,0.0,0.0,1,1,0
20738,'1',1,9,1,3.6,1.53,0.0,0.0,0.0,0.0,1,1,0
20739,'1',1,9,1,6.19,2.308,0.0,0.0,0.0,0.0,1,1,0
20740,'1',1,9,1,13.697,4.395,0.0,0.0,0.0,0.0,1,1,0
20745,'1',1,9,1,5.583,2.334,0.0,0.0,0.0,0.0,1,1,0
20753,'1',1,9,1,5.523,2.42,0.0,0.0,0.0,0.0,1,1,0
20755,'1',1,9,1,23.735,6.78,0.0,0.0,0.0,0.0,1,1,0
20756,'1',1,9,1,19.485,6.036,0.0,0.0,0.0,0.0,1,1,0
20757,'1',1,9,1,4.318,1.59,0.0,0.0,0.0,0.0,1,1,0
20758,'1',1,9,1,5.241,2.12,0.0,0.0,0.0,0.0,1,1,0
20759,'1',1,9,1,1.77,0.744,0.0,0.0,0.0,0.0,1,1,0
20760,'1',1,9,1,8.926,3.89,0.0,0.0,0.0,0.0,1,1,0
20764,'1',1,9,1,8.499,3.309,0.0,0.0,0.0,0.0,1,1,0
20765,'1',1,9,1,8.148,2.522,0.0,0.0,0.0,0.0,1,1,0
20768,'1',1,9,1,12.671,4.027,0.0,0.0,0.0,0.0,1,1,0
20769,'1',1,9,1,29.147,10.44,0.0,0.0,0.0,0.0,1,1,0
20771,'1',1,9,1,4.805,2.317,0.0,0.0,0.0,0.0,1,1,0
20772,'1',1,9,1,8.926,2.839,0.0,0.0,0.0,0.0,1,1,0
20774,'1',1,9,1,6.207,2.685,0.0,0.0,0.0,0.0,1,1,0
20775,'1',1,9,1,6.053,2.642,0.0,0.0,0.0,0.0,1,1,0
20776,'1',1,9,1,23.23,5.54,0.0,0.0,0.0,0.0,1,1,0
20777,'1',1,9,1,19.323,7.208,0.0,0.0,0.0,0.0,1,1,0
20778,'1',1,9,1,13.612,4.48,0.0,0.0,0.0,0.0,1,1,0
20779,'1',1,9,1,5.438,2.625,0.0,0.0,0.0,0.0,1,1,0
20780,'1',1,9,1,8.55,3.044,0.0,0.0,0.0,0.0,1,1,0
20781,'1',1,9,1,6.524,2.266,0.0,0.0,0.0,0.0,1,1,0
20782,'1',1,9,1,5.908,2.548,0.0,0.0,0.0,0.0,1,1,0
20783,'1',1,9,1,15.304,6.755,0.0,0.0,0.0,0.0,1,1,0
20785,'1',1,9,1,62.483,15.544,0.0,0.0,0.0,0.0,1,1,0
20789,'1',1,9,1,12.688,3.172,0.0,0.0,0.0,0.0,1,1,0
20791,'1',1,9,1,5.763,2.266,0.0,0.0,0.0,0.0,1,1,0
20794,'1',1,9,1,3.189,1.539,0.0,0.0,0.0,0.0,1,1,0
20795,'1',1,9,1,16.997,6.515,0.0,0.0,0.0,0.0,1,1,0
20798,'1',1,9,1,7.008,2.476,0.0,0.0,0.0,0.0,1,1,0
20799,'1',1,9,1,5.556,2.7,0.0,0.0,0.0,0.0,1,1,0
20800,'1',1,9,1,3.155,1.428,0.0,0.0,0.0,0.0,1,1,0
20801,'1',1,9,1,8.131,3.377,0.0,0.0,0.0,0.0,1,1,0
20803,'1',1,9,1,2.531,1.052,0.0,0.0,0.0,0.0,1,1,0
20804,'1',1,9,1,12.107,4.224,0.0,0.0,0.0,0.0,1,1,0
20807,'1',1,9,1,18.578,4.698,0.0,0.0,0.0,0.0,1,1,0
20809,'1',1,9,1,6.84,2.736,0.0,0.0,0.0,0.0,1,1,0
20811,'1',1,9,1,4.318,1.915,0.0,0.0,0.0,0.0,1,1,0
20812,'1',1,9,1,67.776,17.331,0.0,0.0,0.0,0.0,1,1,0
20813,'1',1,9,1,3.488,1.71,0.0,0.0,0.0,0.0,1,1,0
20814,'1',1,9,1,15.544,6.19,0.0,0.0,0.0,0.0,1,1,0
20817,'1',1,9,1,18.186,4.549,0.0,0.0,0.0,0.0,1,1,0
20818,'1',1,9,1,66.442,16.613,0.0,0.0,0.0,0.0,1,1,0
20819,'1',1,9,1,10.021,2.505,0.0,0.0,0.0,0.0,1,1,0
20821,'1',1,9,1,5.11,0.902,0.0,0.0,0.0,0.0,1,1,0
20822,'1',1,9,1,55.746,11.428,0.0,0.0,0.0,0.0,1,1,0
20823,'1',1,9,1,11.055,2.762,0.0,0.0,0.0,0.0,1,1,0
20826,'1',1,9,1,7.635,2.232,0.0,0.0,0.0,0.0,1,1,0
20829,'1',1,9,1,4.078,1.949,0.0,0.0,0.0,0.0,1,1,0
20830,'1',1,9,1,8.063,3.446,0.0,0.0,0.0,0.0,1,1,0
20832,'1',1,9,1,7.165,2.103,0.0,0.0,0.0,0.0,1,1,0
20834,'1',1,9,1,6.755,2.522,0.0,0.0,0.0,0.0,1,1,0
20836,'1',1,9,1,3.745,1.778,0.0,0.0,0.0,0.0,1,1,0
20839,'1',1,9,1,14.373,3.531,0.0,0.0,0.0,0.0,1,1,0
20844,'1',1,9,1,9.55,3.6,0.0,0.0,0.0,0.0,1,1,0
20848,'1',1,9,1,11.525,4.318,0.0,0.0,0.0,0.0,1,1,0
20849,'1',1,9,1,6.541,2.608,0.0,0.0,0.0,0.0,1,1,0
20853,'1',1,9,1,8.943,3.3,0.0,0.0,0.0,0.0,1,1,0
20855,'1',1,9,1,31.738,6.37,0.0,0.0,0.0,0.0,1,1,0
20858,'1',1,9,1,19.562,5.617,0.0,0.0,0.0,0.0,1,1,0
20863,'1',1,9,1,17.074,4.266,0.0,0.0,0.0,0.0,1,1,0
20864,'1',1,9,1,37.355,9.337,0.0,0.0,0.0,0.0,1,1,0
20866,'1',1,9,1,11.662,2.916,0.0,0.0,0.0,0.0,1,1,0
20867,'1',1,9,1,8.362,2.086,0.0,0.0,0.0,0.0,1,1,0
20868,'1',1,9,1,8.815,2.206,0.0,0.0,0.0,0.0,1,1,0
20869,'1',1,9,1,25.778,6.447,0.0,0.0,0.0,0.0,1,1,0
20870,'1',1,9,1,55.917,13.979,0.0,0.0,0.0,0.0,1,1,0
20872,'1',1,9,1,90.733,22.683,0.0,0.0,0.0,0.0,1,1,0
20874,'1',1,9,1,41.596,10.397,0.0,0.0,0.0,0.0,1,1,0
20876,'1',1,9,1,24.94,6.233,0.0,0.0,0.0,0.0,1,1,0
20877,'1',1,9,1,32.635,10.722,0.0,0.0,0.0,0.0,1,1,0
20879,'1',1,9,1,56.883,15.287,0.0,0.0,0.0,0.0,1,1,0
20880,'1',1,9,1,26.573,8.037,0.0,0.0,0.0,0.0,1,1,0
20884,'1',1,9,1,22.239,7.302,0.0,0.0,0.0,0.0,1,1,0
20885,'1',1,9,1,43.289,12.834,0.0,0.0,0.0,0.0,1,1,0
20886,'1',1,9,1,27.822,6.951,0.0,0.0,0.0,0.0,1,1,0
20887,'1',1,9,1,74.009,18.776,0.0,0.0,0.0,0.0,1,1,0
20889,'1',1,9,1,12.979,5.275,0.0,0.0,0.0,0.0,1,1,0
20890,'1',1,9,1,6.216,1.556,0.0,0.0,0.0,0.0,1,1,0
20891,'1',1,9,1,6.088,2.916,0.0,0.0,0.0,0.0,1,1,0
20895,'1',1,9,1,5.823,1.453,0.0,0.0,0.0,0.0,1,1,0
20896,'1',1,9,1,11.585,2.898,0.0,0.0,0.0,0.0,1,1,0
20897,'1',1,9,1,19.494,6.857,0.0,0.0,0.0,0.0,1,1,0
20901,'1',1,9,1,4.882,2.223,0.0,0.0,0.0,0.0,1,1,0
20905,'1',1,9,1,14.202,3.617,0.0,0.0,0.0,0.0,1,1,0
20906,'1',1,9,1,3.608,1.616,0.0,0.0,0.0,0.0,1,1,0
20908,'1',1,9,1,6.259,2.556,0.0,0.0,0.0,0.0,1,1,0
20911,'1',1,9,1,9.567,3.198,0.0,0.0,0.0,0.0,1,1,0
20914,'1',1,9,1,12.637,4.412,0.0,0.0,0.0,0.0,1,1,0
20915,'1',1,9,1,14.749,3.762,0.0,0.0,0.0,0.0,1,1,0
20920,'1',1,9,1,60.833,14.458,0.0,0.0,0.0,0.0,1,1,0
20922,'1',1,9,1,5.404,2.112,0.0,0.0,0.0,0.0,1,1,0
20923,'1',1,9,1,5.01,2.308,0.0,0.0,0.0,0.0,1,1,0
20927,'1',1,9,1,4.925,2.368,0.0,0.0,0.0,0.0,1,1,0
20930,'1',1,9,1,6.891,1.727,0.0,0.0,0.0,0.0,1,1,0
20932,'1',1,9,1,5.463,2.103,0.0,0.0,0.0,0.0,1,1,0
20933,'1',1,9,1,12.15,3.659,0.0,0.0,0.0,0.0,1,1,0
20934,'1',1,9,1,5.284,2.274,0.0,0.0,0.0,0.0,1,1,0
20935,'1',1,9,1,16.091,4.027,0.0,0.0,0.0,0.0,1,1,0
20938,'1',1,9,1,7.575,2.565,0.0,0.0,0.0,0.0,1,1,0
20939,'1',1,9,1,7.524,2.813,0.0,0.0,0.0,0.0,1,1,0
20941,'1',1,9,1,8.694,3.84,0.0,0.0,0.0,0.0,1,1,0
20942,'1',1,9,1,14.774,6.686,0.0,0.0,0.0,0.0,1,1,0
20944,'1',1,9,1,5.121,2.42,0.0,0.0,0.0,0.0,1,1,0
20945,'1',1,9,1,11.799,3.933,0.0,0.0,0.0,0.0,1,1,0
20948,'1',1,9,1,18.032,4.506,0.0,0.0,0.0,0.0,1,1,0
20950,'1',1,9,1,11.149,2.787,0.0,0.0,0.0,0.0,1,1,0
20953,'1',1,9,1,10.73,2.685,0.0,0.0,0.0,0.0,1,1,0
20955,'1',1,9,1,11.363,2.839,0.0,0.0,0.0,0.0,1,1,0
20956,'1',1,9,1,27.711,6.925,0.0,0.0,0.0,0.0,1,1,0
20957,'1',1,9,1,10.867,2.719,0.0,0.0,0.0,0.0,1,1,0
20961,'1',1,9,1,13.338,4.429,0.0,0.0,0.0,0.0,1,1,0
20962,'1',1,9,1,13.424,3.36,0.0,0.0,0.0,0.0,1,1,0
20963,'1',1,9,1,13.689,3.42,0.0,0.0,0.0,0.0,1,1,0
20964,'1',1,9,1,7.49,2.736,0.0,0.0,0.0,0.0,1,1,0
20965,'1',1,9,1,7.362,2.625,0.0,0.0,0.0,0.0,1,1,0
20968,'1',1,9,1,6.558,2.916,0.0,0.0,0.0,0.0,1,1,0
20969,'1',1,9,1,4.66,1.949,0.0,0.0,0.0,0.0,1,1,0
20970,'1',1,9,1,2.394,1.111,0.0,0.0,0.0,0.0,1,1,0
20971,'1',1,9,1,19.708,5.968,0.0,0.0,0.0,0.0,1,1,0
20972,'1',1,9,1,6.532,2.308,0.0,0.0,0.0,0.0,1,1,0
20974,'1',1,9,1,12.492,5.386,0.0,0.0,0.0,0.0,1,1,0
...
0 / END OF LOAD DATA BEGIN FIXED SHUNT DATA
0 / END OF FIXED SHUNT DATA BEGIN GENERATOR DATA
20401,'1',907.257,206.073,629.6,-433.3,1.02,0,100.0,0.0,1.0,0.0,0.0,1.0,1,100.0,1300.0,500.0,1,1.0,0,1.0,0,1.0,0,1.0,0,1.0
20401,'2',0.0,0.0,629.6,-433.3,1.02,0,100.0,0.0,1.0,0.0,0.0,1.0,0,100.0,1300.0,500.0,1,1.0,0,1.0,0,1.0,0,1.0,0,1.0
20403,'1',22.964,40.2,40.2,-23.3,1.02,0,100.0,0.0,1.0,0.0,0.0,1.0,1,100.0,70.0,19.95,1,1.0,0,1.0,0,1.0,0,1.0,0,1.0
20403,'2',22.964,40.2,40.2,-23.3,1.02,0,100.0,0.0,1.0,0.0,0.0,1.0,1,100.0,70.0,19.95,1,1.0,0,1.0,0,1.0,0,1.0,0,1.0
20403,'3',537.341,227.612,261.5,-180.0,1.02,0,100.0,0.0,1.0,0.0,0.0,1.0,1,100.0,540.0,310.0,1,1.0,0,1.0,0,1.0,0,1.0,0,1.0
20405,'1',94.493,40.982,54.5,-37.5,1.02,0,100.0,0.0,1.0,0.0,0.0,1.0,1,100.0,112.5,55.0,1,1.0,0,1.0,0,1.0,0,1.0,0,1.0
20405,'2',528.385,40.982,257.2,-177.0,1.02,0,100.0,0.0,1.0,0.0,0.0,1.0,1,100.0,531.0,300.0,1,1.0,0,1.0,0,1.0,0,1.0,0,1.0
20405,'3',523.627,40.982,257.2,-177.0,1.02,0,100.0,0.0,1.0,0.0,0.0,1.0,1,100.0,531.0,230.0,1,1.0,0,1.0,0,1.0,0,1.0,0,1.0
20407,'1',13.798,19.232,54.7,-29.4,1.02,0,100.0,0.0,1.0,0.0,0.0,1.0,1,100.0,88.2,10.0,1,1.0,0,1.0,0,1.0,0,1.0,0,1.0
20407,'2',13.798,19.232,54.7,-29.4,1.02,0,100.0,0.0,1.0,0.0,0.0,1.0,1,100.0,88.2,10.0,1,1.0,0,1.0,0,1.0,0,1.0,0,1.0
20407,'3',131.419,19.232,128.4,-88.4,1.02,0,100.0,0.0,1.0,0.0,0.0,1.0,1,100.0,265.2,120.0,1,1.0,0,1.0,0,1.0,0,1.0,0,1.0
20407,'4',139.499,19.232,128.4,-88.4,1.02,0,100.0,0.0,1.0,0.0,0.0,1.0,1,100.0,265.2,120.0,1,1.0,0,1.0,0,1.0,0,1.0,0,1.0
20408,'1',175.468,38.725,146.0,-72.4,1.02,0,100.0,0.0,1.0,0.0,0.0,1.0,1,100.0,217.3,163.0,1,1.0,0,1.0,0,1.0,0,1.0,0,1.0
20408,'2',175.468,38.725,146.0,-72.4,1.02,0,100.0,0.0,1.0,0.0,0.0,1.0,1,100.0,217.3,163.0,1,1.0,0,1.0,0,1.0,0,1.0,0,1.0
20408,'3',175.468,38.725,146.0,-72.4,1.02,0,100.0,0.0,1.0,0.0,0.0,1.0,1,100.0,217.3,163.0,1,1.0,0,1.0,0,1.0,0,1.0,0,1.0
20408,'4',175.468,38.725,146.0,-72.4,1.02,0,100.0,0.0,1.0,0.0,0.0,1.0,1,100.0,217.3,163.0,1,1.0,0,1.0,0,1.0,0,1.0,0,1.0
20408,'5',175.468,38.725,146.0,-72.4,1.02,0,100.0,0.0,1.0,0.0,0.0,1.0,1,100.0,217.3,163.0,1,1.0,0,1.0,0,1.0,0,1.0,0,1.0
20408,'6',175.468,38.725,146.0,-72.4,1.02,0,100.0,0.0,1.0,0.0,0.0,1.0,1,100.0,217.3,163.0,1,1.0,0,1.0,0,1.0,0,1.0,0,1.0
20409,'1',165.349,89.141,125.9,-67.7,1.02,0,100.0,0.0,1.0,0.0,0.0,1.0,1,100.0,203.2,110.0,1,1.0,0,1.0,0,1.0,0,1.0,0,1.0
20409,'2',165.349,89.141,125.9,-67.7,1.02,0,100.0,0.0,1.0,0.0,0.0,1.0,1,100.0,203.2,110.0,1,1.0,0,1.0,0,1.0,0,1.0,0,1.0
20409,'3',170.671,89.141,132.0,-71.0,1.02,0,100.0,0.0,1.0,0.0,0.0,1.0,1,100.0,213.0,110.0,1,1.0,0,1.0,0,1.0,0,1.0,0,1.0
20410,'1',0.0,96.7,96.7,-66.6,1.02,0,100.0,0.0,1.0,0.0,0.0,1.0,1,100.0,65.0,0.0,1,1.0,0,1.0,0,1.0,0,1.0,1,1.0
20411,'1',189.462,92.938,118.0,-63.5,1.02,0,100.0,0.0,1.0,0.0,0.0,1.0,1,100.0,190.4,100.0,1,1.0,0,1.0,0,1.0,0,1.0,0,1.0
20411,'2',37.315,23.2,23.2,-12.5,1.02,0,100.0,0.0,1.0,0.0,0.0,1.0,1,100.0,37.5,20.0,1,1.0,0,1.0,0,1.0,0,1.0,0,1.0
20411,'3',411.066,92.938,256.0,-137.7,1.02,0,100.0,0.0,1.0,0.0,0.0,1.0,1,100.0,413.1,150.0,1,1.0,0,1.0,0,1.0,0,1.0,0,1.0
20412,'1',181.004,57.114,112.7,-60.6,1.02,0,100.0,0.0,1.0,0.0,0.0,1.0,1,100.0,181.9,92.0,1,1.0,0,1.0,0,1.0,0,1.0,0,1.0
20412,'2',181.004,57.114,112.7,-60.6,1.02,0,100.0,0.0,1.0,0.0,0.0,1.0,1,100.0,181.9,92.0,1,1.0,0,1.0,0,1.0,0,1.0,0,1.0
20412,'3',211.951,57.114,103.2,-71.0,1.02,0,100.0,0.0,1.0,0.0,0.0,1.0,1,100.0,213.0,25.0,1,1.0,0,1.0,0,1.0,0,1.0,0,1.0
20414,'1',99.508,62.0,62.0,-33.3,1.02,0,100.0,0.0,1.0,0.0,0.0,1.0,1,100.0,100.0,54.0,1,1.0,0,1.0,0,1.0,0,1.0,0,1.0
20414,'10',6.034,17.65,17.65,-9.35,1.02,0,100.0,0.0,1.0,0.0,0.0,1.0,1,100.0,28.05,5.85,1,1.0,0,1.0,0,1.0,0,1.0,0,1.0
20414,'11',6.034,17.65,17.65,-9.35,1.02,0,100.0,0.0,1.0,0.0,0.0,1.0,1,100.0,28.05,5.85,1,1.0,0,1.0,0,1.0,0,1.0,0,1.0
20414,'12',460.72,286.9,286.9,-154.3,1.02,0,100.0,0.0,1.0,0.0,0.0,1.0,1,100.0,463.0,220.0,1,1.0,0,1.0,0,1.0,0,1.0,0,1.0
20414,'2',99.508,62.0,62.0,-33.3,1.02,0,100.0,0.0,1.0,0.0,0.0,1.0,1,100.0,100.0,54.0,1,1.0,0,1.0,0,1.0,0,1.0,0,1.0
20414,'3',82.591,62.3,62.3,-27.7,1.02,0,100.0,0.0,1.0,0.0,0.0,1.0,1,100.0,83.0,45.0,1,1.0,0,1.0,0,1.0,0,1.0,0,1.0
20414,'4',82.591,62.3,62.3,-27.7,1.02,0,100.0,0.0,1.0,0.0,0.0,1.0,1,100.0,83.0,45.0,1,1.0,0,1.0,0,1.0,0,1.0,0,1.0
20414,'5',91.056,99.8,99.8,-53.7,1.02,0,100.0,0.0,1.0,0.0,0.0,1.0,1,100.0,161.0,90.0,1,1.0,0,1.0,0,1.0,0,1.0,0,1.0
20414,'6',6.034,17.65,17.65,-9.35,1.02,0,100.0,0.0,1.0,0.0,0.0,1.0,1,100.0,28.05,5.85,1,1.0,0,1.0,0,1.0,0,1.0,0,1.0
20414,'7',6.034,17.65,17.65,-9.35,1.02,0,100.0,0.0,1.0,0.0,0.0,1.0,1,100.0,28.05,5.85,1,1.0,0,1.0,0,1.0,0,1.0,0,1.0
20414,'8',6.034,17.65,17.65,-9.35,1.02,0,100.0,0.0,1.0,0.0,0.0,1.0,1,100.0,28.05,5.85,1,1.0,0,1.0,0,1.0,0,1.0,0,1.0
20414,'9',6.034,17.65,17.65,-9.35,1.02,0,100.0,0.0,1.0,0.0,0.0,1.0,1,100.0,28.05,5.85,1,1.0,0,1.0,0,1.0,0,1.0,0,1.0
20415,'1',52.249,17.555,103.2,-55.5,1.02,0,100.0,0.0,1.0,0.0,0.0,1.0,1,100.0,166.6,40.0,1,1.0,0,1.0,0,1.0,0,1.0,0,1.0
20415,'2',52.249,17.555,103.2,-55.5,1.02,0,100.0,0.0,1.0,0.0,0.0,1.0,1,100.0,166.6,40.0,1,1.0,0,1.0,0,1.0,0,1.0,0,1.0
20415,'3',52.249,17.555,103.2,-55.5,1.02,0,100.0,0.0,1.0,0.0,0.0,1.0,1,100.0,166.6,40.0,1,1.0,0,1.0,0,1.0,0,1.0,0,1.0
20415,'4',103.748,17.555,200.2,-107.7,1.02,0,100.0,0.0,1.0,0.0,0.0,1.0,1,100.0,323.0,80.0,1,1.0,0,1.0,0,1.0,0,1.0,0,1.0
20416,'1',73.256,78.0,78.0,-53.7,1.02,0,100.0,0.0,1.0,0.0,0.0,1.0,1,100.0,161.0,50.0,1,1.0,0,1.0,0,1.0,0,1.0,0,1.0
20418,'1',4.368,13.17,18.1,-18.1,1.02,0,100.0,0.0,1.0,0.0,0.0,1.0,1,100.0,55.0,2.0,1,1.0,0,1.0,0,1.0,0,1.0,0,1.0
20418,'2',30.25,13.17,16.58,-10.14,1.02,0,100.0,0.0,1.0,0.0,0.0,1.0,1,100.0,30.4,2.4,1,1.0,0,1.0,0,1.0,0,1.0,0,1.0
20418,'3',30.25,13.17,16.58,-10.14,1.02,0,100.0,0.0,1.0,0.0,0.0,1.0,1,100.0,30.4,2.4,1,1.0,0,1.0,0,1.0,0,1.0,0,1.0
20418,'4',30.25,13.17,16.58,-10.14,1.02,0,100.0,0.0,1.0,0.0,0.0,1.0,1,100.0,30.4,2.4,1,1.0,0,1.0,0,1.0,0,1.0,0,1.0
20418,'5',30.25,13.17,16.58,-10.14,1.02,0,100.0,0.0,1.0,0.0,0.0,1.0,1,100.0,30.4,2.4,1,1.0,0,1.0,0,1.0,0,1.0,0,1.0
20418,'6',30.25,13.17,16.58,-10.14,1.02,0,100.0,0.0,1.0,0.0,0.0,1.0,1,100.0,30.4,2.4,1,1.0,0,1.0,0,1.0,0,1.0,0,1.0
20418,'7',5.722,13.17,24.8,-13.3,1.02,0,100.0,0.0,1.0,0.0,0.0,1.0,1,100.0,40.0,4.0,1,1.0,0,1.0,0,1.0,0,1.0,0,1.0
20418,'8',3.378,13.17,19.8,-10.7,1.02,0,100.0,0.0,1.0,0.0,0.0,1.0,1,100.0,32.0,2.0,1,1.0,0,1.0,0,1.0,0,1.0,0,1.0
20419,'1',125.991,75.336,93.0,-50.0,1.02,0,100.0,0.0,1.0,0.0,0.0,1.0,1,100.0,150.0,65.0,1,1.0,0,1.0,0,1.0,0,1.0,0,1.0
20419,'2',125.991,75.336,93.0,-50.0,1.02,0,100.0,0.0,1.0,0.0,0.0,1.0,1,100.0,150.0,65.0,1,1.0,0,1.0,0,1.0,0,1.0,0,1.0
20419,'3',125.991,75.336,93.0,-50.0,1.02,0,100.0,0.0,1.0,0.0,0.0,1.0,1,100.0,150.0,58.5,1,1.0,0,1.0,0,1.0,0,1.0,0,1.0
20419,'4',125.991,75.336,93.0,-50.0,1.02,0,100.0,0.0,1.0,0.0,0.0,1.0,1,100.0,150.0,58.5,1,1.0,0,1.0,0,1.0,0,1.0,0,1.0
20421,'1',128.365,19.765,62.5,-43.0,1.02,0,100.0,0.0,1.0,0.0,0.0,1.0,1,100.0,129.0,70.0,1,1.0,0,1.0,0,1.0,0,1.0,0,1.0
20421,'2',128.365,19.765,62.5,-43.0,1.02,0,100.0,0.0,1.0,0.0,0.0,1.0,1,100.0,129.0,70.0,1,1.0,0,1.0,0,1.0,0,1.0,0,1.0
20422,'1',45.788,73.76,78.3,-46.0,1.02,0,100.0,0.0,1.0,0.0,0.0,1.0,1,100.0,138.1,34.525,1,1.0,0,1.0,0,1.0,0,1.0,0,1.0
20422,'2',126.872,73.76,90.3,-42.5,1.02,0,100.0,0.0,1.0,0.0,0.0,1.0,1,100.0,127.5,49.725,1,1.0,0,1.0,0,1.0,0,1.0,0,1.0
20422,'3',127.37,73.76,90.7,-42.7,1.02,0,100.0,0.0,1.0,0.0,0.0,1.0,1,100.0,128.0,49.92,1,1.0,0,1.0,0,1.0,0,1.0,0,1.0
20422,'4',127.37,73.76,90.7,-42.7,1.02,0,100.0,0.0,1.0,0.0,0.0,1.0,1,100.0,128.0,49.92,1,1.0,0,1.0,0,1.0,0,1.0,0,1.0
20423,'1',82.426,33.671,60.6,-41.7,1.02,0,100.0,0.0,1.0,0.0,0.0,1.0,1,100.0,125.1,45.0,1,1.0,0,1.0,0,1.0,0,1.0,0,1.0
20423,'2',82.426,33.671,60.6,-41.7,1.02,0,100.0,0.0,1.0,0.0,0.0,1.0,1,100.0,125.1,45.0,1,1.0,0,1.0,0,1.0,0,1.0,0,1.0
20423,'3',74.416,33.671,60.6,-41.7,1.02,0,100.0,0.0,1.0,0.0,0.0,1.0,1,100.0,125.1,45.0,1,1.0,0,1.0,0,1.0,0,1.0,0,1.0
20423,'4',74.416,33.671,60.6,-41.7,1.02,0,100.0,0.0,1.0,0.0,0.0,1.0,1,100.0,125.1,45.0,1,1.0,0,1.0,0,1.0,0,1.0,0,1.0
20428,'1',52.624,0.458,64.3,-34.6,1.02,0,100.0,0.0,1.0,0.0,0.0,1.0,1,100.0,103.7,45.0,1,1.0,0,1.0,0,1.0,0,1.0,0,1.0
20428,'2',154.499,0.458,87.2,-87.2,1.02,0,100.0,0.0,1.0,0.0,0.0,1.0,1,100.0,265.2,135.0,1,1.0,0,1.0,0,1.0,0,1.0,0,1.0
20429,'1',0.0,45.6,45.6,-45.6,1.02,0,100.0,0.0,1.0,0.0,0.0,1.0,1,100.0,81.0,0.0,1,1.0,0,1.0,0,1.0,0,1.0,1,1.0
20430,'1',0.0,65.152,96.9,-66.7,1.02,0,100.0,0.0,1.0,0.0,0.0,1.0,1,100.0,33.0,0.0,1,1.0,0,1.0,0,1.0,0,1.0,1,1.0
20430,'2',0.0,65.152,97.5,-67.1,1.02,0,100.0,0.0,1.0,0.0,0.0,1.0,1,100.0,55.0,0.0,1,1.0,0,1.0,0,1.0,0,1.0,1,1.0
20430,'3',0.0,44.1,44.1,-44.1,1.02,0,100.0,0.0,1.0,0.0,0.0,1.0,1,100.0,33.0,0.0,1,1.0,0,1.0,0,1.0,0,1.0,1,1.0
20430,'4',0.0,43.7,43.7,-43.7,1.02,0,100.0,0.0,1.0,0.0,0.0,1.0,1,100.0,43.0,0.0,1,1.0,0,1.0,0,1.0,0,1.0,1,1.0
20431,'1',0.0,35.753,43.7,-43.7,1.02,0,100.0,0.0,1.0,0.0,0.0,1.0,1,100.0,12.0,0.0,1,1.0,0,1.0,0,1.0,0,1.0,1,1.0
20432,'1',0.0,16.706,43.5,-43.5,1.02,0,100.0,0.0,1.0,0.0,0.0,1.0,1,100.0,22.0,0.0,1,1.0,0,1.0,0,1.0,0,1.0,1,1.0
20435,'1',6.292,9.9,9.9,-9.9,1.02,0,100.0,0.0,1.0,0.0,0.0,1.0,1,100.0,30.0,5.0,1,1.0,0,1.0,0,1.0,0,1.0,0,1.0
20435,'2',8.73,7.533,7.533,-4.933,1.02,0,100.0,0.0,1.0,0.0,0.0,1.0,1,100.0,14.8,2.467,1,1.0,0,1.0,0,1.0,0,1.0,0,1.0
20435,'3',6.264,7.533,7.533,-4.933,1.02,0,100.0,0.0,1.0,0.0,0.0,1.0,1,100.0,14.8,2.467,1,1.0,0,1.0,0,1.0,0,1.0,0,1.0
20435,'4',8.73,7.533,7.533,-4.933,1.02,0,100.0,0.0,1.0,0.0,0.0,1.0,1,100.0,14.8,2.467,1,1.0,0,1.0,0,1.0,0,1.0,0,1.0
20435,'5',6.264,7.533,7.533,-4.933,1.02,0,100.0,0.0,1.0,0.0,0.0,1.0,1,100.0,14.8,2.467,1,1.0,0,1.0,0,1.0,0,1.0,0,1.0
20435,'6',6.264,7.533,7.533,-4.933,1.02,0,100.0,0.0,1.0,0.0,0.0,1.0,1,100.0,14.8,2.467,1,1.0,0,1.0,0,1.0,0,1.0,0,1.0
20435,'7',8.73,7.533,7.533,-4.933,1.02,0,100.0,0.0,1.0,0.0,0.0,1.0,1,100.0,14.8,2.467,1,1.0,0,1.0,0,1.0,0,1.0,0,1.0
20436,'1',72.655,17.969,53.6,-28.8,1.02,0,100.0,0.0,1.0,0.0,0.0,1.0,1,100.0,86.5,50.0,1,1.0,0,1.0,0,1.0,0,1.0,0,1.0
20436,'2',72.655,17.969,53.6,-28.8,1.02,0,100.0,0.0,1.0,0.0,0.0,1.0,1,100.0,86.5,50.0,1,1.0,0,1.0,0,1.0,0,1.0,0,1.0
20436,'3',72.655,17.969,53.6,-28.8,1.02,0,100.0,0.0,1.0,0.0,0.0,1.0,1,100.0,86.5,50.0,1,1.0,0,1.0,0,1.0,0,1.0,0,1.0
20436,'4',72.655,17.969,53.6,-28.8,1.02,0,100.0,0.0,1.0,0.0,0.0,1.0,1,100.0,86.5,50.0,1,1.0,0,1.0,0,1.0,0,1.0,0,1.0
20436,'5',72.655,17.969,53.6,-28.8,1.02,0,100.0,0.0,1.0,0.0,0.0,1.0,1,100.0,86.5,50.0,1,1.0,0,1.0,0,1.0,0,1.0,0,1.0
20436,'6',72.655,17.969,53.6,-28.8,1.02,0,100.0,0.0,1.0,0.0,0.0,1.0,1,100.0,86.5,50.0,1,1.0,0,1.0,0,1.0,0,1.0,0,1.0
20436,'7',72.655,17.969,53.6,-28.8,1.02,0,100.0,0.0,1.0,0.0,0.0,1.0,1,100.0,86.5,50.0,1,1.0,0,1.0,0,1.0,0,1.0,0,1.0
20436,'8',72.655,17.969,53.6,-28.8,1.02,0,100.0,0.0,1.0,0.0,0.0,1.0,1,100.0,86.5,50.0,1,1.0,0,1.0,0,1.0,0,1.0,0,1.0
20437,'1',84.581,52.7,52.7,-28.3,1.02,0,100.0,0.0,1.0,0.0,0.0,1.0,1,100.0,85.0,45.0,1,1.0,0,1.0,0,1.0,0,1.0,0,1.0
20437,'2',84.581,52.7,52.7,-28.3,1.02,0,100.0,0.0,1.0,0.0,0.0,1.0,1,100.0,85.0,45.0,1,1.0,0,1.0,0,1.0,0,1.0,0,1.0
20437,'3',84.581,52.7,52.7,-28.3,1.02,0,100.0,0.0,1.0,0.0,0.0,1.0,1,100.0,85.0,45.0,1,1.0,0,1.0,0,1.0,0,1.0,0,1.0
20437,'4',84.581,52.7,52.7,-28.3,1.02,0,100.0,0.0,1.0,0.0,0.0,1.0,1,100.0,85.0,45.0,1,1.0,0,1.0,0,1.0,0,1.0,0,1.0
20438,'1',23.844,41.5,41.5,-22.3,1.02,0,100.0,0.0,1.0,0.0,0.0,1.0,1,100.0,67.0,20.0,1,1.0,0,1.0,0,1.0,0,1.0,0,1.0
20438,'2',27.358,41.5,41.5,-22.3,1.02,0,100.0,0.0,1.0,0.0,0.0,1.0,1,100.0,67.0,20.0,1,1.0,0,1.0,0,1.0,0,1.0,0,1.0
20438,'3',27.358,41.5,41.5,-22.3,1.02,0,100.0,0.0,1.0,0.0,0.0,1.0,1,100.0,67.0,20.0,1,1.0,0,1.0,0,1.0,0,1.0,0,1.0
20438,'4',32.058,41.5,41.5,-22.3,1.02,0,100.0,0.0,1.0,0.0,0.0,1.0,1,100.0,67.0,20.0,1,1.0,0,1.0,0,1.0,0,1.0,0,1.0
20438,'5',32.058,41.5,41.5,-22.3,1.02,0,100.0,0.0,1.0,0.0,0.0,1.0,1,100.0,67.0,20.0,1,1.0,0,1.0,0,1.0,0,1.0,0,1.0
20438,'6',32.058,41.5,41.5,-22.3,1.02,0,100.0,0.0,1.0,0.0,0.0,1.0,1,100.0,67.0,20.0,1,1.0,0,1.0,0,1.0,0,1.0,0,1.0
20439,'1',60.7,40.3,40.3,-20.3,1.02,0,100.0,0.0,1.0,0.0,0.0,1.0,1,100.0,61.0,27.0,1,1.0,0,1.0,0,1.0,0,1.0,0,1.0
20440,'1',49.754,37.5,37.5,-16.7,1.02,0,100.0,0.0,1.0,0.0,0.0,1.0,1,100.0,50.0,23.8,1,1.0,0,1.0,0,1.0,0,1.0,0,1.0
20440,'2',49.363,37.5,37.5,-16.7,1.02,0,100.0,0.0,1.0,0.0,0.0,1.0,1,100.0,50.0,23.8,1,1.0,0,1.0,0,1.0,0,1.0,0,1.0
20440,'3',60.223,45.8,45.8,-20.3,1.02,0,100.0,0.0,1.0,0.0,0.0,1.0,1,100.0,61.0,29.036,1,1.0,0,1.0,0,1.0,0,1.0,0,1.0
20440,'4',58.107,45.8,45.8,-20.3,1.02,0,100.0,0.0,1.0,0.0,0.0,1.0,1,100.0,61.0,29.036,1,1.0,0,1.0,0,1.0,0,1.0,0,1.0
20440,'5',58.107,45.8,45.8,-20.3,1.02,0,100.0,0.0,1.0,0.0,0.0,1.0,1,100.0,61.0,29.036,1,1.0,0,1.0,0,1.0,0,1.0,0,1.0
20442,'1',58.709,36.6,36.6,-19.7,1.02,0,100.0,0.0,1.0,0.0,0.0,1.0,1,100.0,59.0,10.0,1,1.0,0,1.0,0,1.0,0,1.0,0,1.0
20442,'2',58.709,36.6,36.6,-19.7,1.02,0,100.0,0.0,1.0,0.0,0.0,1.0,1,100.0,59.0,10.0,1,1.0,0,1.0,0,1.0,0,1.0,0,1.0
20442,'3',58.709,36.6,36.6,-19.7,1.02,0,100.0,0.0,1.0,0.0,0.0,1.0,1,100.0,59.0,10.0,1,1.0,0,1.0,0,1.0,0,1.0,0,1.0
20442,'4',58.709,36.6,36.6,-19.7,1.02,0,100.0,0.0,1.0,0.0,0.0,1.0,1,100.0,59.0,10.0,1,1.0,0,1.0,0,1.0,0,1.0,0,1.0
20444,'1',12.196,16.8,16.8,-16.8,1.02,0,100.0,0.0,1.0,0.0,0.0,1.0,1,100.0,51.0,10.0,1,1.0,0,1.0,0,1.0,0,1.0,0,1.0
20444,'2',12.721,20.8,20.8,-20.8,1.02,0,100.0,0.0,1.0,0.0,0.0,1.0,1,100.0,63.2,10.0,1,1.0,0,1.0,0,1.0,0,1.0,0,1.0
20444,'3',4.67,20.4,20.4,-20.4,1.02,0,100.0,0.0,1.0,0.0,0.0,1.0,1,100.0,62.0,2.0,1,1.0,0,1.0,0,1.0,0,1.0,0,1.0
20445,'1',49.754,31.0,31.0,-16.7,1.02,0,100.0,0.0,1.0,0.0,0.0,1.0,1,100.0,50.0,34.0,1,1.0,0,1.0,0,1.0,0,1.0,0,1.0
20445,'2',113.041,70.4,70.4,-37.9,1.02,0,100.0,0.0,1.0,0.0,0.0,1.0,1,100.0,113.6,54.0,1,1.0,0,1.0,0,1.0,0,1.0,0,1.0
20445,'3',68.66,42.8,42.8,-23.0,1.02,0,100.0,0.0,1.0,0.0,0.0,1.0,1,100.0,69.0,32.0,1,1.0,0,1.0,0,1.0,0,1.0,0,1.0
20445,'4',68.66,42.8,42.8,-23.0,1.02,0,100.0,0.0,1.0,0.0,0.0,1.0,1,100.0,69.0,32.0,1,1.0,0,1.0,0,1.0,0,1.0,0,1.0
20445,'5',16.862,28.5,28.5,-15.3,1.02,0,100.0,0.0,1.0,0.0,0.0,1.0,1,100.0,46.0,16.56,1,1.0,0,1.0,0,1.0,0,1.0,0,1.0
20445,'6',16.862,28.5,28.5,-15.3,1.02,0,100.0,0.0,1.0,0.0,0.0,1.0,1,100.0,46.0,16.56,1,1.0,0,1.0,0,1.0,0,1.0,0,1.0
20446,'1',2.274,20.2,20.2,-13.9,1.02,0,100.0,0.0,1.0,0.0,0.0,1.0,1,100.0,41.8,2.0,1,1.0,0,1.0,0,1.0,0,1.0,0,1.0
20446,'2',2.274,20.2,20.2,-13.9,1.02,0,100.0,0.0,1.0,0.0,0.0,1.0,1,100.0,41.8,2.0,1,1.0,0,1.0,0,1.0,0,1.0,0,1.0
20448,'1',41.196,25.7,25.7,-13.8,1.02,0,100.0,0.0,1.0,0.0,0.0,1.0,1,100.0,41.4,17.0,1,1.0,0,1.0,0,1.0,0,1.0,0,1.0
20448,'2',41.196,25.7,25.7,-13.8,1.02,0,100.0,0.0,1.0,0.0,0.0,1.0,1,100.0,41.4,17.0,1,1.0,0,1.0,0,1.0,0,1.0,0,1.0
20448,'3',85.477,53.2,53.2,-28.6,1.02,0,100.0,0.0,1.0,0.0,0.0,1.0,1,100.0,85.9,36.0,1,1.0,0,1.0,0,1.0,0,1.0,0,1.0
20449,'1',40.002,27.636,30.2,-13.4,1.02,0,100.0,0.0,1.0,0.0,0.0,1.0,1,100.0,40.2,14.07,1,1.0,0,1.0,0,1.0,0,1.0,0,1.0
20449,'2',68.66,27.636,51.8,-23.0,1.02,0,100.0,0.0,1.0,0.0,0.0,1.0,1,100.0,69.0,24.15,1,1.0,0,1.0,0,1.0,0,1.0,0,1.0
20449,'3',12.683,26.3,26.3,-11.7,1.02,0,100.0,0.0,1.0,0.0,0.0,1.0,1,100.0,35.0,12.6,1,1.0,0,1.0,0,1.0,0,1.0,0,1.0
20450,'1',51.152,37.7,37.7,-20.3,1.02,0,100.0,0.0,1.0,0.0,0.0,1.0,1,100.0,60.9,28.0,1,1.0,0,1.0,0,1.0,0,1.0,0,1.0
20450,'2',27.718,20.5,20.5,-11.0,1.02,0,100.0,0.0,1.0,0.0,0.0,1.0,1,100.0,33.0,13.0,1,1.0,0,1.0,0,1.0,0,1.0,0,1.0
20451,'1',6.326,23.1,23.1,-10.3,1.02,0,100.0,0.0,1.0,0.0,0.0,1.0,1,100.0,30.8,5.0,1,1.0,0,1.0,0,1.0,0,1.0,0,1.0
20452,'1',20.998,15.5,15.5,-8.3,1.02,0,100.0,0.0,1.0,0.0,0.0,1.0,1,100.0,25.0,9.5,1,1.0,0,1.0,0,1.0,0,1.0,0,1.0
20453,'1',10.121,7.45,7.45,-4.0,1.02,0,100.0,0.0,1.0,0.0,0.0,1.0,1,100.0,12.05,1.5,1,1.0,0,1.0,0,1.0,0,1.0,0,1.0
20453,'2',10.121,7.45,7.45,-4.0,1.02,0,100.0,0.0,1.0,0.0,0.0,1.0,1,100.0,12.05,1.5,1,1.0,0,1.0,0,1.0,0,1.0,0,1.0
20455,'1',11.045,6.9,6.9,-3.7,1.02,0,100.0,0.0,1.0,0.0,0.0,1.0,1,100.0,11.1,2.0,1,1.0,0,1.0,0,1.0,0,1.0,0,1.0
20455,'2',11.045,6.9,6.9,-3.7,1.02,0,100.0,0.0,1.0,0.0,0.0,1.0,1,100.0,11.1,2.0,1,1.0,0,1.0,0,1.0,0,1.0,0,1.0
20457,'1',2.239,6.43,16.2,-7.2,1.02,0,100.0,0.0,1.0,0.0,0.0,1.0,1,100.0,21.6,1.0,1,1.0,0,1.0,0,1.0,0,1.0,0,1.0
20457,'2',2.239,6.43,16.2,-7.2,1.02,0,100.0,0.0,1.0,0.0,0.0,1.0,1,100.0,21.6,1.0,1,1.0,0,1.0,0,1.0,0,1.0,0,1.0
20457,'3',2.239,6.43,16.2,-7.2,1.02,0,100.0,0.0,1.0,0.0,0.0,1.0,1,100.0,21.6,1.0,1,1.0,0,1.0,0,1.0,0,1.0,0,1.0
20460,'1',811.8,128.187,608.9,-270.6,1.02,0,100.0,0.0,1.0,0.0,0.0,1.0,1,100.0,811.8,0.0,1,1.0,0,1.0,0,1.0,0,1.0,0,1.0
20462,'1',259.801,13.658,204.4,-109.9,1.02,0,100.0,0.0,1.0,0.0,0.0,1.0,1,100.0,329.8,240.0,1,1.0,0,1.0,0,1.0,0,1.0,0,1.0
20462,'2',259.801,13.658,204.4,-109.9,1.02,0,100.0,0.0,1.0,0.0,0.0,1.0,1,100.0,329.8,240.0,1,1.0,0,1.0,0,1.0,0,1.0,0,1.0
20462,'3',259.801,13.658,204.4,-109.9,1.02,0,100.0,0.0,1.0,0.0,0.0,1.0,1,100.0,329.8,240.0,1,1.0,0,1.0,0,1.0,0,1.0,0,1.0
20462,'4',264.248,13.658,204.4,-109.9,1.02,0,100.0,0.0,1.0,0.0,0.0,1.0,1,100.0,329.8,240.0,1,1.0,0,1.0,0,1.0,0,1.0,0,1.0
20462,'5',264.248,13.658,204.4,-109.9,1.02,0,100.0,0.0,1.0,0.0,0.0,1.0,1,100.0,329.8,240.0,1,1.0,0,1.0,0,1.0,0,1.0,0,1.0
20462,'6',264.248,13.658,204.4,-109.9,1.02,0,100.0,0.0,1.0,0.0,0.0,1.0,1,100.0,329.8,240.0,1,1.0,0,1.0,0,1.0,0,1.0,0,1.0
20463,'1',95.844,141.344,219.4,-97.5,1.02,0,100.0,0.0,1.0,0.0,0.0,1.0,1,100.0,292.5,60.0,1,1.0,0,1.0,0,1.0,0,1.0,0,1.0
20463,'2',12.168,141.344,212.0,-94.2,1.02,0,100.0,0.0,1.0,0.0,0.0,1.0,1,100.0,282.6,0.0,1,1.0,0,1.0,0,1.0,0,1.0,0,1.0
20463,'3',300.782,141.344,268.6,-119.4,1.02,0,100.0,0.0,1.0,0.0,0.0,1.0,1,100.0,358.1,135.0,1,1.0,0,1.0,0,1.0,0,1.0,0,1.0
20464,'1',615.96,344.874,544.0,-305.6,1.02,0,100.0,0.0,1.0,0.0,0.0,1.0,1,100.0,916.8,350.0,1,1.0,0,1.0,0,1.0,0,1.0,0,1.0
20464,'2',0.0,0.0,164.4,-88.4,1.02,0,100.0,0.0,1.0,0.0,0.0,1.0,0,100.0,265.2,100.0,1,1.0,0,1.0,0,1.0,0,1.0,0,1.0
20464,'3',0.0,0.0,313.9,-126.3,1.02,0,100.0,0.0,1.0,0.0,0.0,1.0,0,100.0,378.8,100.0,1,1.0,0,1.0,0,1.0,0,1.0,0,1.0
20465,'1',98.435,40.28,91.1,-49.0,1.02,0,100.0,0.0,1.0,0.0,0.0,1.0,1,100.0,147.0,90.0,1,1.0,0,1.0,0,1.0,0,1.0,0,1.0
20465,'2',98.435,40.28,91.1,-49.0,1.02,0,100.0,0.0,1.0,0.0,0.0,1.0,1,100.0,147.0,90.0,1,1.0,0,1.0,0,1.0,0,1.0,0,1.0
20465,'3',98.435,40.28,91.1,-49.0,1.02,0,100.0,0.0,1.0,0.0,0.0,1.0,1,100.0,147.0,90.0,1,1.0,0,1.0,0,1.0,0,1.0,0,1.0
20465,'4',180.549,40.28,151.8,-81.7,1.02,0,100.0,0.0,1.0,0.0,0.0,1.0,1,100.0,245.0,170.0,1,1.0,0,1.0,0,1.0,0,1.0,0,1.0
20465,'5',180.549,40.28,151.8,-81.7,1.02,0,100.0,0.0,1.0,0.0,0.0,1.0,1,100.0,245.0,170.0,1,1.0,0,1.0,0,1.0,0,1.0,0,1.0
20465,'6',180.549,40.28,151.8,-81.7,1.02,0,100.0,0.0,1.0,0.0,0.0,1.0,1,100.0,245.0,170.0,1,1.0,0,1.0,0,1.0,0,1.0,0,1.0
20466,'1',33.435,15.102,20.8,-11.2,1.02,0,100.0,0.0,1.0,0.0,0.0,1.0,1,100.0,33.6,5.0,1,1.0,0,1.0,0,1.0,0,1.0,0,1.0
20466,'10',3.839,14.6,14.6,-8.233,1.02,0,100.0,0.0,1.0,0.0,0.0,1.0,1,100.0,24.711,3.677,1,1.0,0,1.0,0,1.0,0,1.0,0,1.0
20466,'11',3.839,14.6,14.6,-8.233,1.02,0,100.0,0.0,1.0,0.0,0.0,1.0,1,100.0,24.711,3.677,1,1.0,0,1.0,0,1.0,0,1.0,0,1.0
20466,'12',3.839,14.6,14.6,-8.233,1.02,0,100.0,0.0,1.0,0.0,0.0,1.0,1,100.0,24.711,3.677,1,1.0,0,1.0,0,1.0,0,1.0,0,1.0
20466,'13',0.0,0.0,14.6,-8.233,1.02,0,100.0,0.0,1.0,0.0,0.0,1.0,0,100.0,24.711,3.677,1,1.0,0,1.0,0,1.0,0,1.0,0,1.0
20466,'2',33.435,15.102,20.8,-11.2,1.02,0,100.0,0.0,1.0,0.0,0.0,1.0,1,100.0,33.6,5.0,1,1.0,0,1.0,0,1.0,0,1.0,0,1.0
20466,'3',33.435,15.102,20.8,-11.2,1.02,0,100.0,0.0,1.0,0.0,0.0,1.0,1,100.0,33.6,5.0,1,1.0,0,1.0,0,1.0,0,1.0,0,1.0
20466,'4',33.435,15.102,20.8,-11.2,1.02,0,100.0,0.0,1.0,0.0,0.0,1.0,1,100.0,33.6,5.0,1,1.0,0,1.0,0,1.0,0,1.0,0,1.0
20466,'5',3.839,14.6,14.6,-8.233,1.02,0,100.0,0.0,1.0,0.0,0.0,1.0,1,100.0,24.711,3.677,1,1.0,0,1.0,0,1.0,0,1.0,0,1.0
20466,'6',0.0,0.0,14.6,-8.233,1.02,0,100.0,0.0,1.0,0.0,0.0,1.0,0,100.0,24.711,3.677,1,1.0,0,1.0,0,1.0,0,1.0,0,1.0
20466,'7',3.839,14.6,14.6,-8.233,1.02,0,100.0,0.0,1.0,0.0,0.0,1.0,1,100.0,24.711,3.677,1,1.0,0,1.0,0,1.0,0,1.0,0,1.0
20466,'8',3.839,14.6,14.6,-8.233,1.02,0,100.0,0.0,1.0,0.0,0.0,1.0,1,100.0,24.711,3.677,1,1.0,0,1.0,0,1.0,0,1.0,0,1.0
20466,'9',0.0,0.0,14.6,-8.233,1.02,0,100.0,0.0,1.0,0.0,0.0,1.0,0,100.0,24.711,3.677,1,1.0,0,1.0,0,1.0,0,1.0,0,1.0
20467,'1',123.125,54.28,116.9,-62.9,1.02,0,100.0,0.0,1.0,0.0,0.0,1.0,1,100.0,188.7,115.0,1,1.0,0,1.0,0,1.0,0,1.0,0,1.0
20467,'2',123.125,54.28,116.9,-62.9,1.02,0,100.0,0.0,1.0,0.0,0.0,1.0,1,100.0,188.7,115.0,1,1.0,0,1.0,0,1.0,0,1.0,0,1.0
20467,'3',129.188,54.28,132.3,-71.1,1.02,0,100.0,0.0,1.0,0.0,0.0,1.0,1,100.0,213.4,120.0,1,1.0,0,1.0,0,1.0,0,1.0,0,1.0
20467,'4',100.827,54.28,116.9,-62.9,1.02,0,100.0,0.0,1.0,0.0,0.0,1.0,1,100.0,188.7,90.0,1,1.0,0,1.0,0,1.0,0,1.0,0,1.0
20467,'5',100.827,54.28,116.9,-62.9,1.02,0,100.0,0.0,1.0,0.0,0.0,1.0,1,100.0,188.7,90.0,1,1.0,0,1.0,0,1.0,0,1.0,0,1.0
20468,'1',23.764,130.32,154.9,-83.3,1.02,0,100.0,0.0,1.0,0.0,0.0,1.0,1,100.0,250.0,13.0,1,1.0,0,1.0,0,1.0,0,1.0,0,1.0
20468,'2',95.402,105.4,105.4,-56.7,1.02,0,100.0,0.0,1.0,0.0,0.0,1.0,1,100.0,170.0,95.0,1,1.0,0,1.0,0,1.0,0,1.0,0,1.0
20468,'3',96.115,105.4,105.4,-56.7,1.02,0,100.0,0.0,1.0,0.0,0.0,1.0,1,100.0,170.0,95.0,1,1.0,0,1.0,0,1.0,0,1.0,0,1.0
20468,'4',96.115,105.4,105.4,-56.7,1.02,0,100.0,0.0,1.0,0.0,0.0,1.0,1,100.0,170.0,95.0,1,1.0,0,1.0,0,1.0,0,1.0,0,1.0
20469,'1',117.618,21.769,105.4,-56.7,1.02,0,100.0,0.0,1.0,0.0,0.0,1.0,1,100.0,170.0,116.0,1,1.0,0,1.0,0,1.0,0,1.0,0,1.0
20469,'2',116.402,21.769,105.4,-56.7,1.02,0,100.0,0.0,1.0,0.0,0.0,1.0,1,100.0,170.0,116.0,1,1.0,0,1.0,0,1.0,0,1.0,0,1.0
20469,'3',117.115,21.769,105.4,-56.7,1.02,0,100.0,0.0,1.0,0.0,0.0,1.0,1,100.0,170.0,116.0,1,1.0,0,1.0,0,1.0,0,1.0,0,1.0
20469,'4',116.402,21.769,105.4,-56.7,1.02,0,100.0,0.0,1.0,0.0,0.0,1.0,1,100.0,170.0,116.0,1,1.0,0,1.0,0,1.0,0,1.0,0,1.0
20470,'1',35.109,20.2,20.2,-13.9,1.02,0,100.0,0.0,1.0,0.0,0.0,1.0,1,100.0,41.8,4.0,1,1.0,0,1.0,0,1.0,0,1.0,0,1.0
20470,'2',35.109,20.2,20.2,-13.9,1.02,0,100.0,0.0,1.0,0.0,0.0,1.0,1,100.0,41.8,4.0,1,1.0,0,1.0,0,1.0,0,1.0,0,1.0
20470,'3',3.508,14.7,14.7,-8.9,1.02,0,100.0,0.0,1.0,0.0,0.0,1.0,1,100.0,26.7,3.333,1,1.0,0,1.0,0,1.0,0,1.0,0,1.0
20470,'4',3.508,14.7,14.7,-8.9,1.02,0,100.0,0.0,1.0,0.0,0.0,1.0,1,100.0,26.7,3.333,1,1.0,0,1.0,0,1.0,0,1.0,0,1.0
20470,'5',3.508,14.7,14.7,-8.9,1.02,0,100.0,0.0,1.0,0.0,0.0,1.0,1,100.0,26.7,3.333,1,1.0,0,1.0,0,1.0,0,1.0,0,1.0
20470,'6',3.508,14.7,14.7,-8.9,1.02,0,100.0,0.0,1.0,0.0,0.0,1.0,1,100.0,26.7,3.333,1,1.0,0,1.0,0,1.0,0,1.0,0,1.0
20470,'7',3.508,14.7,14.7,-8.9,1.02,0,100.0,0.0,1.0,0.0,0.0,1.0,1,100.0,26.7,3.333,1,1.0,0,1.0,0,1.0,0,1.0,0,1.0
20470,'8',3.508,14.7,14.7,-8.9,1.02,0,100.0,0.0,1.0,0.0,0.0,1.0,1,100.0,26.7,3.333,1,1.0,0,1.0,0,1.0,0,1.0,0,1.0
20471,'1',155.53,32.029,96.9,-52.1,1.02,0,100.0,0.0,1.0,0.0,0.0,1.0,1,100.0,156.3,70.0,1,1.0,0,1.0,0,1.0,0,1.0,0,1.0
20471,'2',155.53,32.029,96.9,-52.1,1.02,0,100.0,0.0,1.0,0.0,0.0,1.0,1,100.0,156.3,70.0,1,1.0,0,1.0,0,1.0,0,1.0,0,1.0
20472,'1',108.877,95.9,95.9,-51.6,1.02,0,100.0,0.0,1.0,0.0,0.0,1.0,1,100.0,154.7,100.0,1,1.0,0,1.0,0,1.0,0,1.0,0,1.0
20473,'1',135.33,17.446,84.3,-45.3,1.02,0,100.0,0.0,1.0,0.0,0.0,1.0,1,100.0,136.0,70.0,1,1.0,0,1.0,0,1.0,0,1.0,0,1.0
20473,'2',135.33,17.446,84.3,-45.3,1.02,0,100.0,0.0,1.0,0.0,0.0,1.0,1,100.0,136.0,70.0,1,1.0,0,1.0,0,1.0,0,1.0,0,1.0
20473,'3',135.33,17.446,84.3,-45.3,1.02,0,100.0,0.0,1.0,0.0,0.0,1.0,1,100.0,136.0,65.0,1,1.0,0,1.0,0,1.0,0,1.0,0,1.0
20473,'4',135.33,17.446,84.3,-45.3,1.02,0,100.0,0.0,1.0,0.0,0.0,1.0,1,100.0,136.0,65.0,1,1.0,0,1.0,0,1.0,0,1.0,0,1.0
20473,'5',216.317,17.446,429.2,-230.8,1.02,0,100.0,0.0,1.0,0.0,0.0,1.0,1,100.0,692.5,60.0,1,1.0,0,1.0,0,1.0,0,1.0,0,1.0
...
0 / END OF GENERATOR DATA BEGIN BRANCH DATA
20401,20415,'1',0.00097082,0.011043,0.099744,1142.0,1284.0,1284.0,0.0,0.0,0.0,0.0,1,1,16.1,1,1.0,0,1.0,0,1.0,0,1.0
20401,20441,'1',0.0047231,0.052055,0.50897,1142.0,1284.0,1284.0,0.0,0.0,0.0,0.0,1,1,79.1,1,1.0,0,1.0,0,1.0,0,1.0
20401,20857,'1',0.0010111,0.016464,0.25723,1419.0,1489.9,1560.9,0.0,0.0,0.0,0.0,1,1,31.8,1,1.0,0,1.0,0,1.0,0,1.0
20401,21714,'1',0.00077966,0.013891,0.14413,1046.0,1098.3,1150.6,0.0,0.0,0.0,0.0,1,1,21.7,1,1.0,0,1.0,0,1.0,0,1.0
20401,21992,'1',0.0014574,0.016943,0.14655,1142.0,1284.0,1284.0,0.0,0.0,0.0,0.0,1,1,24.2,1,1.0,0,1.0,0,1.0,0,1.0
20401,81861,'1',0.0027,0.02497,0.41704,1195.0,1195.0,1195.0,0.0,0.0,0.0,0.0,1,1,50.2,1,1.0,0,1.0,0,1.0,0,1.0
20403,20412,'1',0.00070919,0.0128,0.28386,1959.0,2056.9,2154.9,0.0,0.0,0.0,0.0,1,1,29.5,1,1.0,0,1.0,0,1.0,0,1.0
20403,21305,'1',6.5642e-05,0.001087,0.010188,1142.0,1284.0,1284.0,0.0,0.0,0.0,0.0,1,1,1.6,1,1.0,0,1.0,0,1.0,0,1.0
20403,21313,'1',0.00010058,0.00186,0.01787,1046.0,1098.3,1150.6,0.0,0.0,0.0,0.0,1,1,2.8,1,1.0,0,1.0,0,1.0,0,1.0
20403,21323,'1',0.0005122,0.0084807,0.090585,1142.0,1284.0,1284.0,0.0,0.0,0.0,0.0,1,1,13.4,1,1.0,0,1.0,0,1.0,0,1.0
20405,20436,'1',7.0492e-05,0.00081356,0.0071318,1142.0,1284.0,1284.0,0.0,0.0,0.0,0.0,1,1,1.2,1,1.0,0,1.0,0,1.0,0,1.0
20405,21667,'1',0.0017447,0.020148,0.17678,1142.0,1284.0,1284.0,0.0,0.0,0.0,0.0,1,1,29.0,1,1.0,0,1.0,0,1.0,0,1.0
20405,21940,'1',0.001573,0.019834,0.30271,1190.0,1249.5,1309.0,0.0,0.0,0.0,0.0,1,1,37.9,1,1.0,0,1.0,0,1.0,0,1.0
20407,21758,'1',0.00076858,0.008434,0.081934,1142.0,1284.0,1284.0,0.0,0.0,0.0,0.0,1,1,12.8,1,1.0,0,1.0,0,1.0,0,1.0
20407,21997,'1',0.00038802,0.0042575,0.041355,1142.0,1284.0,1284.0,0.0,0.0,0.0,0.0,1,1,6.4,1,1.0,0,1.0,0,1.0,0,1.0
20408,21120,'1',3.9796e-05,0.000644,0.0064943,1142.0,1284.0,1284.0,0.0,0.0,0.0,0.0,1,1,1.0,1,1.0,0,1.0,0,1.0,0,1.0
20408,81883,'1',0.0012244,0.019116,0.32546,1419.0,1489.9,1560.9,0.0,0.0,0.0,0.0,1,1,38.5,1,1.0,0,1.0,0,1.0,0,1.0
20409,22032,'1',0.00037879,0.004291,0.039065,1142.0,1284.0,1284.0,0.0,0.0,0.0,0.0,1,1,6.3,1,1.0,0,1.0,0,1.0,0,1.0
20409,22034,'1',0.00010399,0.0019232,0.018477,1046.0,1098.3,1150.6,0.0,0.0,0.0,0.0,1,1,2.9,1,1.0,0,1.0,0,1.0,0,1.0
20409,81902,'1',0.00043705,0.005109,0.090527,1190.0,1249.5,1309.0,0.0,0.0,0.0,0.0,1,1,10.5,1,1.0,0,1.0,0,1.0,0,1.0
20410,22091,'1',0.00073154,0.0081457,0.076823,1142.0,1284.0,1284.0,0.0,0.0,0.0,0.0,1,1,12.1,1,1.0,0,1.0,0,1.0,0,1.0
20411,21191,'1',0.00041004,0.005419,0.0868,1251.0,1313.5,1376.1,0.0,0.0,0.0,0.0,1,1,10.6,1,1.0,0,1.0,0,1.0,0,1.0
20411,21726,'1',5.1473e-05,0.00093581,0.017502,1624.0,1705.2,1786.4,0.0,0.0,0.0,0.0,1,1,2.0,1,1.0,0,1.0,0,1.0,0,1.0
20412,21238,'1',5.6309e-05,0.0010775,0.018173,1624.0,1705.2,1786.4,0.0,0.0,0.0,0.0,1,1,2.2,1,1.0,0,1.0,0,1.0,0,1.0
20412,21238,'2',5.6e-05,0.001078,0.018173,1624.0,1705.2,1786.4,0.0,0.0,0.0,0.0,1,1,2.2,1,1.0,0,1.0,0,1.0,0,1.0
20412,21239,'1',4.7436e-05,0.00079353,0.014598,1536.0,1612.8,1689.6,0.0,0.0,0.0,0.0,1,1,1.7,1,1.0,0,1.0,0,1.0,0,1.0
20414,21132,'1',0.00038656,0.0052619,0.054209,1142.0,1284.0,1284.0,0.0,0.0,0.0,0.0,1,1,8.2,1,1.0,0,1.0,0,1.0,0,1.0
20414,21540,'1',0.000137,0.001505,0.014615,1275.0,1275.0,1275.0,0.0,0.0,0.0,0.0,1,1,2.3,1,1.0,0,1.0,0,1.0,0,1.0
20414,21570,'1',0.00012382,0.0013585,0.013196,1142.0,1284.0,1284.0,0.0,0.0,0.0,0.0,1,1,2.1,1,1.0,0,1.0,0,1.0,0,1.0
20414,21591,'1',0.00040768,0.0047053,0.041249,1044.0,1044.0,1044.0,0.0,0.0,0.0,0.0,1,1,6.8,1,1.0,0,1.0,0,1.0,0,1.0
20415,20428,'1',2.0571e-05,0.00025435,0.0025826,1142.0,1284.0,1284.0,0.0,0.0,0.0,0.0,1,1,0.4,1,1.0,0,1.0,0,1.0,0,1.0
20415,21992,'1',0.00058532,0.006657,0.06012,1142.0,1284.0,1284.0,0.0,0.0,0.0,0.0,1,1,9.7,1,1.0,0,1.0,0,1.0,0,1.0
20415,21995,'1',0.00095524,0.010483,0.10185,1142.0,1284.0,1284.0,0.0,0.0,0.0,0.0,1,1,15.9,1,1.0,0,1.0,0,1.0,0,1.0
20416,82348,'1',0.000380548,0.0031966,0.00090548,205.0,215.2,225.5,0.0,0.0,0.0,0.0,1,1,0.8,1,1.0,0,1.0,0,1.0,0,1.0
20418,21238,'1',5.0378e-05,0.00053299,0.00797,1097.0,1151.9,1206.7,0.0,0.0,0.0,0.0,1,1,1.0,1,1.0,0,1.0,0,1.0,0,1.0
20418,21239,'1',6.7608e-05,0.00069789,0.010966,1097.0,1151.9,1206.7,0.0,0.0,0.0,0.0,1,1,1.4,1,1.0,0,1.0,0,1.0,0,1.0
20419,20751,'1',0.00031726,0.0034811,0.033813,1142.0,1284.0,1284.0,0.0,0.0,0.0,0.0,1,1,5.3,1,1.0,0,1.0,0,1.0,0,1.0
20419,20752,'1',0.00029404,0.0041576,0.039647,1142.0,1284.0,1284.0,0.0,0.0,0.0,0.0,1,1,6.2,1,1.0,0,1.0,0,1.0,0,1.0
20419,20766,'1',0.00051682,0.0073374,0.0694,1142.0,1284.0,1284.0,0.0,0.0,0.0,0.0,1,1,11.0,1,1.0,0,1.0,0,1.0,0,1.0
20419,20910,'1',9.2241e-05,0.001027,0.0096842,1142.0,1284.0,1284.0,0.0,0.0,0.0,0.0,1,1,1.5,1,1.0,0,1.0,0,1.0,0,1.0
20419,20913,'1',0.00023514,0.0027138,0.02379,1142.0,1284.0,1284.0,0.0,0.0,0.0,0.0,1,1,3.9,1,1.0,0,1.0,0,1.0,0,1.0
20419,20924,'1',0.00025064,0.0027906,0.026314,1142.0,1284.0,1284.0,0.0,0.0,0.0,0.0,1,1,4.2,1,1.0,0,1.0,0,1.0,0,1.0
20420,20713,'1',0.00037824,0.0048771,0.045493,1142.0,1284.0,1284.0,0.0,0.0,0.0,0.0,1,1,7.3,1,1.0,0,1.0,0,1.0,0,1.0
20420,21685,'1',0.00045519,0.0052537,0.046057,1142.0,1284.0,1284.0,0.0,0.0,0.0,0.0,1,1,7.6,1,1.0,0,1.0,0,1.0,0,1.0
20421,21745,'1',0.00723,0.060732,0.0148,159.0,166.9,174.9,0.0,0.0,0.0,0.0,1,1,14.6,1,1.0,0,1.0,0,1.0,0,1.0
20421,21751,'1',0.00256595,0.021554,0.0057352,175.0,183.7,192.5,0.0,0.0,0.0,0.0,1,1,5.4,1,1.0,0,1.0,0,1.0,0,1.0
20421,21891,'1',0.00737476,0.061948,0.017354,317.0,332.9,348.7,0.0,0.0,0.0,0.0,1,1,15.9,1,1.0,0,1.0,0,1.0,0,1.0
20422,21190,'1',6.4e-05,0.001079,0.019561,1556.0,1556.0,1556.0,0.0,0.0,0.0,0.0,1,1,2.2,1,1.0,0,1.0,0,1.0,0,1.0
20422,21193,'1',8.377e-05,0.00096681,0.0084752,1142.0,1284.0,1284.0,0.0,0.0,0.0,0.0,1,1,1.4,1,1.0,0,1.0,0,1.0,0,1.0
20422,21238,'1',7.7e-05,0.001163,0.021141,1420.0,1489.9,1560.9,0.0,0.0,0.0,0.0,1,1,2.4,1,1.0,0,1.0,0,1.0,0,1.0
20423,20796,'1',0.00056593,0.0065319,0.057264,1142.0,1284.0,1284.0,0.0,0.0,0.0,0.0,1,1,9.4,1,1.0,0,1.0,0,1.0,0,1.0
20425,20748,'1',0.00035677,0.0087595,4.5852,4000.0,4000.0,4000.0,0.0,0.0,0.0,0.0,1,1,98.5,1,1.0,0,1.0,0,1.0,0,1.0
20425,21483,'1',0.0003219,0.0066298,2.3519,3601.0,3781.1,3961.1,0.0,0.0,0.0,0.0,1,1,61.1,1,1.0,0,1.0,0,1.0,0,1.0
20426,20713,'1',0.00045149,0.0081889,0.081865,1046.0,1098.3,1150.6,0.0,0.0,0.0,0.0,1,1,12.6,1,1.0,0,1.0,0,1.0,0,1.0
20426,21107,'1',0.0010816,0.012998,0.12862,1142.0,1284.0,1284.0,0.0,0.0,0.0,0.0,1,1,19.8,1,1.0,0,1.0,0,1.0,0,1.0
20427,22037,'1',0.00022685,0.0039573,0.042813,1046.0,1098.3,1150.6,0.0,0.0,0.0,0.0,1,1,6.3,1,1.0,0,1.0,0,1.0,0,1.0
20427,22039,'1',5.7474e-05,0.00066331,0.0058147,1142.0,1284.0,1284.0,0.0,0.0,0.0,0.0,1,1,1.0,1,1.0,0,1.0,0,1.0,0,1.0
20429,20431,'1',0.00142012,0.011929,0.0033946,261.0,274.0,287.1,0.0,0.0,0.0,0.0,1,1,3.1,1,1.0,0,1.0,0,1.0,0,1.0
20429,21936,'1',0.00533488,0.044813,0.010919,159.0,166.9,174.9,0.0,0.0,0.0,0.0,1,1,10.8,1,1.0,0,1.0,0,1.0,0,1.0
20430,20436,'1',0.0027673,0.030857,0.29162,1142.0,1284.0,1284.0,0.0,0.0,0.0,0.0,1,1,46.1,1,1.0,0,1.0,0,1.0,0,1.0
20430,21108,'1',0.0011628,0.012695,0.12468,1142.0,1284.0,1284.0,0.0,0.0,0.0,0.0,1,1,19.3,1,1.0,0,1.0,0,1.0,0,1.0
20430,21289,'1',0.0038154,0.043345,0.3963,1142.0,1284.0,1284.0,0.0,0.0,0.0,0.0,1,1,63.7,1,1.0,0,1.0,0,1.0,0,1.0
20430,21685,'1',0.00058486,0.010818,0.10396,1046.0,1098.3,1150.6,0.0,0.0,0.0,0.0,1,1,16.3,1,1.0,0,1.0,0,1.0,0,1.0
20430,21926,'1',0.00099162,0.017402,0.18632,1046.0,1098.3,1150.6,0.0,0.0,0.0,0.0,1,1,27.6,1,1.0,0,1.0,0,1.0,0,1.0
20431,20432,'1',0.00126083,0.010591,0.0023864,233.0,258.0,286.0,0.0,0.0,0.0,0.0,1,1,2.4,1,1.0,0,1.0,0,1.0,0,1.0
20431,82585,'1',0.0186667,0.1568,0.03533,159.0,166.9,174.9,0.0,0.0,0.0,0.0,1,1,36.2,1,1.0,0,1.0,0,1.0,0,1.0
20432,22088,'1',0.00158095,0.01328,0.0031815,233.0,258.0,286.0,0.0,0.0,0.0,0.0,1,1,3.2,1,1.0,0,1.0,0,1.0,0,1.0
20435,82365,'1',0.000685,0.005754,0.001562,222.0,222.0,274.0,0.0,0.0,0.0,0.0,1,1,1.5,1,1.0,0,1.0,0,1.0,0,1.0
20435,82365,'2',0.000685,0.005754,0.001562,222.0,222.0,274.0,0.0,0.0,0.0,0.0,1,1,1.5,1,1.0,0,1.0,0,1.0,0,1.0
20436,20929,'1',0.00041661,0.007362,0.068872,1142.0,1284.0,1284.0,0.0,0.0,0.0,0.0,1,1,10.9,1,1.0,0,1.0,0,1.0,0,1.0
20436,22020,'1',0.0020009,0.023111,0.20283,1142.0,1284.0,1284.0,0.0,0.0,0.0,0.0,1,1,33.3,1,1.0,0,1.0,0,1.0,0,1.0
20437,21382,'1',5.05e-06,5.539e-05,0.000538,1342.0,1342.0,1342.0,0.0,0.0,0.0,0.0,1,1,0.1,1,1.0,0,1.0,0,1.0,0,1.0
20437,21387,'1',4.554e-05,0.00062953,0.0062843,1142.0,1284.0,1284.0,0.0,0.0,0.0,0.0,1,1,1.0,1,1.0,0,1.0,0,1.0,0,1.0
20438,20710,'1',0.0013392,0.021386,0.21639,1142.0,1284.0,1284.0,0.0,0.0,0.0,0.0,1,1,33.0,1,1.0,0,1.0,0,1.0,0,1.0
20438,20857,'1',0.0020265,0.026157,0.24436,1142.0,1284.0,1284.0,0.0,0.0,0.0,0.0,1,1,39.0,1,1.0,0,1.0,0,1.0,0,1.0
20438,21339,'1',0.00024891,0.0028727,0.025183,1142.0,1284.0,1284.0,0.0,0.0,0.0,0.0,1,1,4.1,1,1.0,0,1.0,0,1.0,0,1.0
20439,21729,'1',0.00101367,0.0085148,0.0020555,219.0,229.9,240.9,0.0,0.0,0.0,0.0,1,1,2.0,1,1.0,0,1.0,0,1.0,0,1.0
20439,21752,'1',0.000267333,0.0022456,0.00062268,307.0,322.4,337.7,0.0,0.0,0.0,0.0,1,1,0.6,1,1.0,0,1.0,0,1.0,0,1.0
20440,20973,'1',0.00018253,0.0020677,0.018824,1142.0,1284.0,1284.0,0.0,0.0,0.0,0.0,1,1,3.0,1,1.0,0,1.0,0,1.0,0,1.0
20440,20985,'1',0.00021344,0.0035346,0.033127,1142.0,1284.0,1284.0,0.0,0.0,0.0,0.0,1,1,5.2,1,1.0,0,1.0,0,1.0,0,1.0
20441,21651,'1',0.0014533,0.01678,0.14718,1142.0,1284.0,1284.0,0.0,0.0,0.0,0.0,1,1,24.1,1,1.0,0,1.0,0,1.0,0,1.0
20441,22034,'1',0.0019449,0.021671,0.20457,1142.0,1284.0,1284.0,0.0,0.0,0.0,0.0,1,1,32.3,1,1.0,0,1.0,0,1.0,0,1.0
20442,22084,'1',0.00058279,0.0066021,0.060109,1142.0,1284.0,1284.0,0.0,0.0,0.0,0.0,1,1,9.7,1,1.0,0,1.0,0,1.0,0,1.0
20443,21970,'1',9.4574e-05,0.0010377,0.010079,1142.0,1284.0,1284.0,0.0,0.0,0.0,0.0,1,1,1.6,1,1.0,0,1.0,0,1.0,0,1.0
20443,21997,'1',0.00021164,0.0023974,0.021826,1142.0,1284.0,1284.0,0.0,0.0,0.0,0.0,1,1,3.5,1,1.0,0,1.0,0,1.0,0,1.0
20444,21722,'1',0.00201762,0.016948,0.0097972,567.0,595.3,623.7,0.0,0.0,0.0,0.0,1,1,6.3,1,1.0,0,1.0,0,1.0,0,1.0
20444,21752,'1',0.000673095,0.005654,0.001424,222.0,222.0,222.0,0.0,0.0,0.0,0.0,1,1,1.4,1,1.0,0,1.0,0,1.0,0,1.0
20444,21753,'1',0.000236012,0.0019825,0.0010592,501.0,526.0,551.1,0.0,0.0,0.0,0.0,1,1,0.7,1,1.0,0,1.0,0,1.0,0,1.0
20445,21150,'1',0.00728452,0.06119,0.01854,284.0,298.2,312.4,0.0,0.0,0.0,0.0,1,1,16.3,1,1.0,0,1.0,0,1.0,0,1.0
20445,21671,'1',0.00327845,0.027539,0.008098,293.0,307.6,322.3,0.0,0.0,0.0,0.0,1,1,7.2,1,1.0,0,1.0,0,1.0,0,1.0
20445,21672,'1',0.00455274,0.038243,0.01038,219.0,229.9,240.9,0.0,0.0,0.0,0.0,1,1,9.7,1,1.0,0,1.0,0,1.0,0,1.0
20445,21676,'1',0.00355012,0.029821,0.0068171,175.0,183.7,192.5,0.0,0.0,0.0,0.0,1,1,7.0,1,1.0,0,1.0,0,1.0,0,1.0
20445,21678,'1',0.00131369,0.011035,0.002583,233.0,258.0,286.0,0.0,0.0,0.0,0.0,1,1,2.6,1,1.0,0,1.0,0,1.0,0,1.0
20445,21681,'1',0.00380107,0.031929,0.0092486,233.0,258.0,286.0,0.0,0.0,0.0,0.0,1,1,8.3,1,1.0,0,1.0,0,1.0,0,1.0
20446,20900,'1',0.00213321,0.017919,0.0045445,233.0,258.0,286.0,0.0,0.0,0.0,0.0,1,1,4.4,1,1.0,0,1.0,0,1.0,0,1.0
20446,20901,'1',0.000969583,0.0081445,0.0020518,159.0,166.9,174.9,0.0,0.0,0.0,0.0,1,1,2.0,1,1.0,0,1.0,0,1.0,0,1.0
20447,22065,'1',0.00012719,0.0014679,0.012868,1142.0,1284.0,1284.0,0.0,0.0,0.0,0.0,1,1,2.1,1,1.0,0,1.0,0,1.0,0,1.0
20448,21345,'1',0.00103233,0.0086716,0.0049175,523.0,549.1,575.3,0.0,0.0,0.0,0.0,1,1,3.2,1,1.0,0,1.0,0,1.0,0,1.0
20448,21356,'1',0.000952524,0.0080012,0.0022453,284.0,298.2,312.4,0.0,0.0,0.0,0.0,1,1,2.1,1,1.0,0,1.0,0,1.0,0,1.0
20448,21373,'1',0.000552405,0.0046402,0.0033412,381.0,400.1,419.1,0.0,0.0,0.0,0.0,1,1,1.9,1,1.0,0,1.0,0,1.0,0,1.0
20449,20793,'1',0.00600107,0.050409,0.013505,238.0,249.9,261.8,0.0,0.0,0.0,0.0,1,1,12.7,1,1.0,0,1.0,0,1.0,0,1.0
20449,21151,'1',0.00190857,0.016032,0.004172,185.0,194.2,203.5,0.0,0.0,0.0,0.0,1,1,4.0,1,1.0,0,1.0,0,1.0,0,1.0
20449,21152,'1',0.00114465,0.0096151,0.0035297,307.0,322.4,337.7,0.0,0.0,0.0,0.0,1,1,2.8,1,1.0,0,1.0,0,1.0,0,1.0
20450,22066,'1',0.00118069,0.0099178,0.0032867,159.0,166.9,174.9,0.0,0.0,0.0,0.0,1,1,2.8,1,1.0,0,1.0,0,1.0,0,1.0
20450,22067,'1',0.000715929,0.0060138,0.001515,159.0,166.9,174.9,0.0,0.0,0.0,0.0,1,1,1.5,1,1.0,0,1.0,0,1.0,0,1.0
20450,22068,'1',8.34369e-05,0.00070087,0.00018437,250.0,262.5,275.0,0.0,0.0,0.0,0.0,1,1,0.2,1,1.0,0,1.0,0,1.0,0,1.0
...